<?xml version="1.0" encoding="UTF-8"?>

<!-- generated on 01/10/22 17:24:11 by Eclipse SUMO netedit Version 1.6.0
<configuration xmlns:xsi="http://www.w3.org/2001/XMLSchema-instance" xsi:noNamespaceSchemaLocation="http://sumo.dlr.de/xsd/netconvertConfiguration.xsd">

    <input>
        <sumo-net-file value="D:\codecode\AAAmine\Toyota_ryg\env_build\sumo_files\auto\grid-map.net.xml"/>
    </input>

    <output>
        <output-file value="D:\codecode\AAAmine\Toyota_ryg\env_build\sumo_files\auto\grid-map.net.xml"/>
    </output>

    <processing>
        <geometry.min-radius.fix.railways value="false"/>
        <geometry.max-grade.fix value="false"/>
        <offset.disable-normalization value="true"/>
        <lefthand value="false"/>
    </processing>

    <junctions>
        <no-internal-links value="false"/>
        <no-turnarounds value="true"/>
        <junctions.corner-detail value="5"/>
        <junctions.limit-turn-speed value="5.5"/>
        <rectangular-lane-cut value="false"/>
    </junctions>

    <pedestrian>
        <walkingareas value="false"/>
    </pedestrian>

    <report>
        <aggregate-warnings value="5"/>
    </report>

</configuration>
-->

<net version="1.6" junctionCornerDetail="5" limitTurnSpeed="5.50" xmlns:xsi="http://www.w3.org/2001/XMLSchema-instance" xsi:noNamespaceSchemaLocation="http://sumo.dlr.de/xsd/net_file.xsd">

    <location netOffset="-437203.78,-4418435.12" convBoundary="3998.33,0.00,21973.65,13250.21" origBoundary="116.264254,39.914284,116.521519,40.034403" projParameter="+proj=utm +zone=50 +ellps=WGS84 +datum=WGS84 +units=m +no_defs"/>

    <type id="highway.bridleway" priority="1" numLanes="1" speed="2.78" allow="pedestrian" oneway="1" width="2.00"/>
    <type id="highway.bus_guideway" priority="1" numLanes="1" speed="27.78" allow="bus" oneway="1"/>
    <type id="highway.cycleway" priority="1" numLanes="1" speed="8.33" allow="bicycle" oneway="1" width="1.00"/>
    <type id="highway.footway" priority="1" numLanes="1" speed="2.78" allow="pedestrian" oneway="1" width="2.00"/>
    <type id="highway.ford" priority="1" numLanes="1" speed="2.78" allow="army" oneway="1"/>
    <type id="highway.living_street" priority="2" numLanes="1" speed="2.78" disallow="tram rail_urban rail rail_electric ship" oneway="1"/>
    <type id="highway.motorway" priority="14" numLanes="2" speed="39.44" allow="private emergency authority army vip passenger hov taxi bus coach delivery truck trailer motorcycle evehicle custom1 custom2" oneway="1"/>
    <type id="highway.motorway_link" priority="9" numLanes="1" speed="22.22" allow="private emergency authority army vip passenger hov taxi bus coach delivery truck trailer motorcycle evehicle custom1 custom2" oneway="1"/>
    <type id="highway.path" priority="1" numLanes="1" speed="2.78" allow="pedestrian bicycle" oneway="1" width="2.00"/>
    <type id="highway.pedestrian" priority="1" numLanes="1" speed="2.78" allow="pedestrian" oneway="1" width="2.00"/>
    <type id="highway.primary" priority="12" numLanes="2" speed="27.78" disallow="tram rail_urban rail rail_electric ship" oneway="1"/>
    <type id="highway.primary_link" priority="7" numLanes="1" speed="22.22" disallow="tram rail_urban rail rail_electric ship" oneway="1"/>
    <type id="highway.raceway" priority="15" numLanes="2" speed="83.33" allow="vip" oneway="1"/>
    <type id="highway.residential" priority="3" numLanes="1" speed="13.89" disallow="tram rail_urban rail rail_electric ship" oneway="1"/>
    <type id="highway.secondary" priority="11" numLanes="2" speed="27.78" disallow="tram rail_urban rail rail_electric ship" oneway="1"/>
    <type id="highway.secondary_link" priority="6" numLanes="1" speed="22.22" disallow="tram rail_urban rail rail_electric ship" oneway="1"/>
    <type id="highway.service" priority="1" numLanes="1" speed="5.56" allow="pedestrian delivery bicycle" oneway="1"/>
    <type id="highway.stairs" priority="1" numLanes="1" speed="1.39" allow="pedestrian" oneway="1" width="2.00"/>
    <type id="highway.step" priority="1" numLanes="1" speed="1.39" allow="pedestrian" oneway="1" width="2.00"/>
    <type id="highway.steps" priority="1" numLanes="1" speed="1.39" allow="pedestrian" oneway="1" width="2.00"/>
    <type id="highway.tertiary" priority="10" numLanes="1" speed="22.22" disallow="tram rail_urban rail rail_electric ship" oneway="1"/>
    <type id="highway.tertiary_link" priority="5" numLanes="1" speed="22.22" disallow="tram rail_urban rail rail_electric ship" oneway="1"/>
    <type id="highway.track" priority="1" numLanes="1" speed="5.56" disallow="tram rail_urban rail rail_electric ship" oneway="1"/>
    <type id="highway.trunk" priority="13" numLanes="2" speed="27.78" disallow="pedestrian bicycle tram rail_urban rail rail_electric ship" oneway="1"/>
    <type id="highway.trunk_link" priority="8" numLanes="1" speed="22.22" disallow="pedestrian bicycle tram rail_urban rail rail_electric ship" oneway="1"/>
    <type id="highway.unclassified" priority="4" numLanes="1" speed="13.89" disallow="tram rail_urban rail rail_electric ship" oneway="1"/>
    <type id="highway.unsurfaced" priority="1" numLanes="1" speed="8.33" disallow="tram rail_urban rail rail_electric ship" oneway="1"/>
    <type id="railway.highspeed" priority="21" numLanes="1" speed="69.44" allow="rail_electric" oneway="1"/>
    <type id="railway.light_rail" priority="19" numLanes="1" speed="27.78" allow="rail_urban" oneway="1"/>
    <type id="railway.preserved" priority="16" numLanes="1" speed="27.78" allow="rail" oneway="1"/>
    <type id="railway.rail" priority="20" numLanes="1" speed="44.44" allow="rail" oneway="1"/>
    <type id="railway.subway" priority="18" numLanes="1" speed="27.78" allow="rail_urban" oneway="1"/>
    <type id="railway.tram" priority="17" numLanes="1" speed="13.89" allow="tram" oneway="1"/>

    <edge id=":0_0" function="internal">
        <lane id=":0_0_0" index="0" allow="bicycle" speed="7.31" length="7.59" width="3.00" shape="5967.63,9469.28 5967.22,9465.78 5965.97,9463.26 5964.97,9462.51"/>
    </edge>
    <edge id=":0_1" function="internal">
        <lane id=":0_1_0" index="0" allow="bicycle" speed="13.89" length="36.92" width="2.00" shape="5967.63,9469.28 5966.08,9432.39"/>
    </edge>
    <edge id=":0_2" function="internal">
        <lane id=":0_2_0" index="0" disallow="pedestrian bicycle" speed="8.62" length="5.40" shape="5970.23,9469.21 5969.66,9464.40 5969.41,9463.90"/>
    </edge>
    <edge id=":0_3" function="internal">
        <lane id=":0_3_0" index="0" disallow="pedestrian bicycle" speed="29.45" length="36.77" shape="5973.43,9469.13 5971.88,9432.39"/>
    </edge>
    <edge id=":0_4" function="internal">
        <lane id=":0_4_0" index="0" disallow="pedestrian bicycle" speed="11.07" length="24.37" shape="5976.63,9469.05 5977.56,9460.19 5980.37,9453.89 5985.04,9450.15 5987.58,9449.69"/>
    </edge>
    <edge id=":0_24" function="internal">
        <lane id=":0_24_0" index="0" allow="bicycle" speed="7.31" length="4.29" width="3.00" shape="5964.97,9462.51 5963.90,9461.72 5960.99,9461.15"/>
    </edge>
    <edge id=":0_25" function="internal">
        <lane id=":0_25_0" index="0" disallow="pedestrian bicycle" speed="8.62" length="10.95" shape="5969.41,9463.90 5967.94,9460.94 5965.07,9458.83 5961.06,9458.06"/>
    </edge>
    <edge id=":0_26" function="internal">
        <lane id=":0_26_0" index="0" disallow="pedestrian bicycle" speed="11.07" length="4.07" shape="5987.58,9449.69 5991.59,9448.97"/>
    </edge>
    <edge id=":0_5" function="internal">
        <lane id=":0_5_0" index="0" allow="bicycle" speed="6.11" length="2.95" width="2.00" shape="5991.37,9464.37 5988.85,9464.62 5988.47,9464.79"/>
    </edge>
    <edge id=":0_6" function="internal">
        <lane id=":0_6_0" index="0" allow="bicycle" speed="13.89" length="30.58" width="3.00" shape="5991.37,9464.37 5982.33,9463.82 5976.18,9462.81 5970.04,9461.77 5960.99,9461.15"/>
    </edge>
    <edge id=":0_7" function="internal">
        <lane id=":0_7_0" index="0" disallow="pedestrian bicycle" speed="7.53" length="8.35" shape="5991.41,9461.77 5987.73,9462.17 5985.10,9463.49 5984.12,9464.88"/>
    </edge>
    <edge id=":0_8" function="internal">
        <lane id=":0_8_0" index="0" disallow="pedestrian bicycle" speed="45.00" length="30.60" shape="5991.45,9458.57 5982.42,9457.95 5976.29,9456.76 5970.16,9455.54 5961.13,9454.86"/>
    </edge>
    <edge id=":0_9" function="internal">
        <lane id=":0_9_0" index="0" disallow="pedestrian bicycle" speed="12.45" length="31.40" shape="5991.50,9455.37 5983.27,9453.82 5975.51,9447.96 5970.19,9440.25 5969.45,9436.39"/>
    </edge>
    <edge id=":0_10" function="internal">
        <lane id=":0_10_0" index="0" disallow="pedestrian bicycle" speed="11.55" length="26.17" shape="5991.54,9452.17 5983.82,9450.10 5977.56,9446.25 5974.38,9440.14 5973.17,9436.39"/>
    </edge>
    <edge id=":0_27" function="internal">
        <lane id=":0_27_0" index="0" allow="bicycle" speed="6.11" length="5.36" width="2.00" shape="5988.47,9464.79 5987.04,9465.44 5985.96,9466.85 5985.60,9468.83"/>
    </edge>
    <edge id=":0_28" function="internal">
        <lane id=":0_28_0" index="0" disallow="pedestrian bicycle" speed="7.53" length="4.24" shape="5984.12,9464.88 5983.52,9465.73 5983.00,9468.89"/>
    </edge>
    <edge id=":0_29" function="internal">
        <lane id=":0_29_0" index="0" disallow="pedestrian bicycle" speed="12.45" length="4.07" shape="5969.45,9436.39 5968.68,9432.39"/>
    </edge>
    <edge id=":0_30" function="internal">
        <lane id=":0_30_0" index="0" disallow="pedestrian bicycle" speed="11.55" length="4.20" shape="5973.17,9436.39 5971.88,9432.39"/>
    </edge>
    <edge id=":0_11" function="internal">
        <lane id=":0_11_0" index="0" allow="bicycle" speed="6.09" length="2.93" width="2.00" shape="5987.28,9432.39 5987.56,9434.81 5987.78,9435.26"/>
    </edge>
    <edge id=":0_12" function="internal">
        <lane id=":0_12_0" index="0" allow="bicycle" speed="13.89" length="36.48" width="2.00" shape="5987.28,9432.39 5985.60,9468.83"/>
    </edge>
    <edge id=":0_13" function="internal">
        <lane id=":0_13_0" index="0" disallow="pedestrian bicycle" speed="7.97" length="4.14" shape="5984.68,9432.39 5985.09,9436.51"/>
    </edge>
    <edge id=":0_14" function="internal">
        <lane id=":0_14_0" index="0" disallow="pedestrian bicycle" speed="29.45" length="36.58" shape="5981.48,9432.39 5983.00,9468.89"/>
        <lane id=":0_14_1" index="1" disallow="pedestrian bicycle" speed="29.45" length="36.58" shape="5978.28,9432.39 5979.80,9468.97"/>
    </edge>
    <edge id=":0_16" function="internal">
        <lane id=":0_16_0" index="0" disallow="pedestrian bicycle" speed="10.77" length="22.89" shape="5975.08,9432.39 5974.21,9440.93 5971.61,9446.99 5967.27,9450.56 5965.21,9450.93"/>
    </edge>
    <edge id=":0_31" function="internal">
        <lane id=":0_31_0" index="0" allow="bicycle" speed="6.09" length="5.16" width="2.00" shape="5987.78,9435.26 5988.39,9436.54 5989.79,9437.60 5991.74,9437.97"/>
    </edge>
    <edge id=":0_32" function="internal">
        <lane id=":0_32_0" index="0" disallow="pedestrian bicycle" speed="7.97" length="9.77" shape="5985.09,9436.51 5985.12,9436.81 5986.43,9439.98 5988.61,9441.90 5991.67,9442.57"/>
    </edge>
    <edge id=":0_33" function="internal">
        <lane id=":0_33_0" index="0" disallow="pedestrian bicycle" speed="10.77" length="4.08" shape="5965.21,9450.93 5961.20,9451.66"/>
    </edge>
    <edge id=":0_17" function="internal">
        <lane id=":0_17_0" index="0" allow="bicycle" speed="6.01" length="3.31" width="2.00" shape="5961.50,9437.36 5963.51,9437.09 5964.59,9436.39"/>
    </edge>
    <edge id=":0_18" function="internal">
        <lane id=":0_18_0" index="0" allow="bicycle" speed="13.89" length="30.24" width="2.00" shape="5961.50,9437.36 5991.74,9437.97"/>
    </edge>
    <edge id=":0_19" function="internal">
        <lane id=":0_19_0" index="0" disallow="pedestrian bicycle" speed="7.38" length="3.92" shape="5961.44,9440.26 5964.61,9439.83 5965.22,9439.44"/>
    </edge>
    <edge id=":0_20" function="internal">
        <lane id=":0_20_0" index="0" disallow="pedestrian bicycle" speed="45.00" length="30.34" shape="5961.44,9440.26 5991.67,9442.57"/>
        <lane id=":0_20_1" index="1" disallow="pedestrian bicycle" speed="45.00" length="30.34" shape="5961.38,9443.06 5991.63,9445.77"/>
    </edge>
    <edge id=":0_22" function="internal">
        <lane id=":0_22_0" index="0" disallow="pedestrian bicycle" speed="12.40" length="31.06" shape="5961.32,9445.86 5969.86,9447.30 5976.62,9452.51 5981.85,9461.52 5982.38,9464.92"/>
    </edge>
    <edge id=":0_23" function="internal">
        <lane id=":0_23_0" index="0" disallow="pedestrian bicycle" speed="11.50" length="25.96" shape="5961.26,9448.66 5968.10,9450.31 5974.33,9454.66 5978.12,9462.18 5978.82,9465.00"/>
    </edge>
    <edge id=":0_34" function="internal">
        <lane id=":0_34_0" index="0" allow="bicycle" speed="6.01" length="4.43" width="2.00" shape="5964.59,9436.39 5964.94,9436.17 5965.79,9434.60 5966.08,9432.39"/>
    </edge>
    <edge id=":0_35" function="internal">
        <lane id=":0_35_0" index="0" disallow="pedestrian bicycle" speed="7.38" length="8.32" shape="5965.22,9439.44 5966.87,9438.37 5968.23,9435.89 5968.68,9432.39"/>
    </edge>
    <edge id=":0_36" function="internal">
        <lane id=":0_36_0" index="0" disallow="pedestrian bicycle" speed="12.40" length="4.01" shape="5982.38,9464.92 5983.00,9468.89"/>
    </edge>
    <edge id=":0_37" function="internal">
        <lane id=":0_37_0" index="0" disallow="pedestrian bicycle" speed="11.50" length="4.09" shape="5978.82,9465.00 5979.80,9468.97"/>
    </edge>
    <edge id=":0_c0" function="crossing" crossingEdges="3i 3o">
        <lane id=":0_c0_0" index="0" allow="pedestrian" speed="1.00" length="19.97" width="4.00" shape="5986.60,9466.83 5966.63,9467.28"/>
    </edge>
    <edge id=":0_c1" function="crossing" crossingEdges="2i 2o">
        <lane id=":0_c1_0" index="0" allow="pedestrian" speed="1.00" length="28.40" width="4.00" shape="5989.75,9436.94 5989.36,9465.34"/>
    </edge>
    <edge id=":0_c2" function="crossing" crossingEdges="1i 1o1">
        <lane id=":0_c2_0" index="0" allow="pedestrian" speed="1.00" length="23.20" width="4.00" shape="5965.08,9434.39 5988.28,9434.39"/>
    </edge>
    <edge id=":0_c3" function="crossing" crossingEdges="4i 4o">
        <lane id=":0_c3_0" index="0" allow="pedestrian" speed="1.00" length="26.80" width="4.00" shape="5962.96,9462.70 5963.54,9435.90"/>
    </edge>
    <edge id=":0_w0" function="walkingarea">
        <lane id=":0_w0_0" index="0" allow="pedestrian" speed="1.00" length="5.27" width="4.00" shape="5960.96,9462.65 5960.92,9464.65 5964.63,9469.33 5966.63,9469.33 5966.47,9467.29 5966.00,9465.65 5965.21,9464.37 5964.11,9463.44 5962.69,9462.87"/>
    </edge>
    <edge id=":0_w1" function="walkingarea">
        <lane id=":0_w1_0" index="0" allow="pedestrian" speed="1.00" length="3.53" width="4.00" shape="5986.60,9468.79 5987.60,9468.79 5991.33,9467.37 5991.36,9465.37 5989.90,9465.45 5988.71,9465.72 5987.79,9466.20 5987.13,9466.88 5986.73,9467.75"/>
    </edge>
    <edge id=":0_w2" function="walkingarea">
        <lane id=":0_w2_0" index="0" allow="pedestrian" speed="1.00" length="3.36" width="4.00" shape="5991.75,9436.97 5991.78,9434.97 5990.28,9432.39 5988.28,9432.39 5988.38,9433.78 5988.67,9434.91 5989.15,9435.80 5989.82,9436.44 5990.69,9436.83"/>
    </edge>
    <edge id=":0_w3" function="walkingarea">
        <lane id=":0_w3_0" index="0" allow="pedestrian" speed="1.00" length="2.88" width="4.00" shape="5965.08,9432.39 5963.08,9432.39 5961.58,9433.86 5961.54,9435.86 5962.62,9435.79 5963.51,9435.51 5964.19,9435.03 5964.69,9434.35 5964.98,9433.47"/>
    </edge>
    <edge id=":00_w0" function="walkingarea">
        <lane id=":00_w0_0" index="0" allow="pedestrian" speed="1.00" length="14.00" width="2.00" shape="4887.82,9772.10 4885.83,9771.97 4901.79,9773.07 4899.80,9772.94"/>
    </edge>
    <edge id=":01_w0" function="walkingarea">
        <lane id=":01_w0_0" index="0" allow="pedestrian" speed="1.00" length="10.00" width="2.00" shape="4702.86,9493.98 4702.95,9491.99 4702.39,9503.97 4702.48,9501.98"/>
    </edge>
    <edge id=":02_0" function="internal">
        <lane id=":02_0_0" index="0" allow="pedestrian" speed="5.29" length="5.95" width="2.00" shape="4922.63,9512.68 4920.96,9512.81 4919.74,9513.41 4918.96,9514.49 4918.61,9516.03"/>
    </edge>
    <edge id=":02_1" function="internal">
        <lane id=":02_1_0" index="0" allow="pedestrian bicycle" speed="13.89" length="20.91" width="2.00" shape="4922.63,9512.68 4901.72,9512.40"/>
    </edge>
    <edge id=":02_2" function="internal">
        <lane id=":02_2_0" index="0" allow="bicycle" speed="7.55" length="12.39" width="4.00" shape="4922.80,9509.68 4918.95,9509.88 4916.14,9510.94 4914.37,9512.88 4913.62,9515.69"/>
    </edge>
    <edge id=":02_3" function="internal">
        <lane id=":02_3_0" index="0" disallow="pedestrian" speed="13.89" length="20.92" width="4.00" shape="4922.77,9510.08 4901.86,9509.40"/>
    </edge>
    <edge id=":02_4" function="internal">
        <lane id=":02_4_0" index="0" allow="bicycle" speed="9.37" length="20.48" width="2.00" shape="4922.81,9509.48 4915.53,9508.56 4910.45,9506.72 4907.56,9503.95 4906.87,9500.27"/>
    </edge>
    <edge id=":02_5" function="internal">
        <lane id=":02_5_0" index="0" disallow="pedestrian bicycle" speed="8.65" length="17.30" width="4.00" shape="4922.77,9510.08 4917.24,9509.23 4913.41,9507.37 4911.28,9504.52 4910.85,9500.66"/>
    </edge>
    <edge id=":02_6" function="internal">
        <lane id=":02_6_0" index="0" allow="pedestrian" speed="4.39" length="4.05" width="2.00" shape="4920.80,9501.62 4920.85,9502.74 4921.25,9503.55 4922.00,9504.07 4923.10,9504.29"/>
    </edge>
    <edge id=":02_7" function="internal">
        <lane id=":02_7_0" index="0" allow="pedestrian" speed="13.89" length="14.58" width="2.00" shape="4920.80,9501.62 4918.61,9516.03"/>
    </edge>
    <edge id=":02_8" function="internal">
        <lane id=":02_8_0" index="0" allow="bicycle" speed="5.73" length="2.50" shape="4918.81,9501.43 4918.91,9503.46 4919.11,9503.88"/>
    </edge>
    <edge id=":02_9" function="internal">
        <lane id=":02_9_0" index="0" allow="bicycle" speed="13.89" length="15.34" width="4.00" shape="4918.81,9501.43 4917.77,9505.78 4916.14,9508.55 4914.55,9511.33 4913.62,9515.69"/>
    </edge>
    <edge id=":02_10" function="internal">
        <lane id=":02_10_0" index="0" allow="bicycle" speed="9.80" length="4.90" width="4.00" shape="4918.81,9501.43 4917.40,9505.64 4917.05,9505.94"/>
    </edge>
    <edge id=":02_11" function="internal">
        <lane id=":02_11_0" index="0" disallow="pedestrian bicycle" speed="7.19" length="7.29" shape="4914.83,9501.04 4915.14,9503.42 4916.60,9505.19 4918.98,9506.24"/>
    </edge>
    <edge id=":02_12" function="internal">
        <lane id=":02_12_0" index="0" disallow="pedestrian bicycle" speed="9.00" length="8.77" width="4.00" shape="4914.83,9501.04 4913.70,9504.92 4911.16,9507.60 4910.18,9507.97"/>
    </edge>
    <edge id=":02_24" function="internal">
        <lane id=":02_24_0" index="0" allow="bicycle" speed="5.73" length="4.87" shape="4919.11,9503.88 4919.63,9504.94 4920.99,9505.89 4922.98,9506.29"/>
    </edge>
    <edge id=":02_25" function="internal">
        <lane id=":02_25_0" index="0" allow="bicycle" speed="9.80" length="16.46" width="4.00" shape="4917.05,9505.94 4914.09,9508.54 4908.90,9510.13 4901.81,9510.40"/>
    </edge>
    <edge id=":02_26" function="internal">
        <lane id=":02_26_0" index="0" disallow="pedestrian bicycle" speed="7.19" length="4.03" shape="4918.98,9506.24 4919.20,9506.34 4922.95,9506.89"/>
    </edge>
    <edge id=":02_27" function="internal">
        <lane id=":02_27_0" index="0" disallow="pedestrian bicycle" speed="9.00" length="8.54" width="4.00" shape="4910.18,9507.97 4907.21,9509.10 4901.86,9509.40"/>
    </edge>
    <edge id=":02_13" function="internal">
        <lane id=":02_13_0" index="0" allow="pedestrian" speed="4.50" length="4.01" width="2.00" shape="4902.19,9502.41 4903.28,9502.31 4904.09,9501.89 4904.62,9501.15 4904.88,9500.08"/>
    </edge>
    <edge id=":02_14" function="internal">
        <lane id=":02_14_0" index="0" allow="pedestrian bicycle" speed="13.89" length="20.99" width="2.00" shape="4902.19,9502.41 4923.10,9504.29"/>
    </edge>
    <edge id=":02_15" function="internal">
        <lane id=":02_15_0" index="0" allow="bicycle" speed="6.05" length="7.12" width="2.00" shape="4902.10,9504.41 4904.03,9504.23 4905.46,9503.48 4906.41,9502.16 4906.87,9500.27"/>
    </edge>
    <edge id=":02_16" function="internal">
        <lane id=":02_16_0" index="0" disallow="pedestrian bicycle" speed="7.35" length="11.13" width="4.00" shape="4902.05,9505.41 4905.71,9505.26 4908.40,9504.42 4910.11,9502.88 4910.85,9500.66"/>
    </edge>
    <edge id=":02_17" function="internal">
        <lane id=":02_17_0" index="0" disallow="pedestrian" speed="13.89" length="20.95" shape="4902.05,9505.41 4922.95,9506.89"/>
    </edge>
    <edge id=":02_18" function="internal">
        <lane id=":02_18_0" index="0" allow="bicycle" speed="8.86" length="17.67" width="4.00" shape="4902.05,9505.41 4907.37,9506.27 4911.07,9508.27 4913.15,9511.41 4913.62,9515.69"/>
    </edge>
    <edge id=":02_19" function="internal">
        <lane id=":02_19_0" index="0" allow="pedestrian" speed="4.63" length="4.52" width="2.00" shape="4904.65,9515.06 4904.53,9513.95 4904.00,9513.14 4903.06,9512.62 4901.72,9512.40"/>
    </edge>
    <edge id=":02_20" function="internal">
        <lane id=":02_20_0" index="0" allow="pedestrian" speed="13.89" length="14.98" width="2.00" shape="4904.65,9515.06 4904.88,9500.08"/>
    </edge>
    <edge id=":02_21" function="internal">
        <lane id=":02_21_0" index="0" allow="bicycle" speed="7.18" length="7.09" width="4.00" shape="4909.63,9515.41 4909.29,9512.93 4907.89,9511.10 4905.83,9510.13"/>
    </edge>
    <edge id=":02_22" function="internal">
        <lane id=":02_22_0" index="0" allow="bicycle" speed="13.89" length="15.40" width="2.00" shape="4909.63,9515.41 4908.59,9510.16 4907.27,9503.76 4906.87,9500.27"/>
    </edge>
    <edge id=":02_23" function="internal">
        <lane id=":02_23_0" index="0" allow="bicycle" speed="8.95" length="3.96" shape="4909.63,9515.41 4910.69,9511.59"/>
    </edge>
    <edge id=":02_28" function="internal">
        <lane id=":02_28_0" index="0" allow="bicycle" speed="7.18" length="4.05" width="4.00" shape="4905.83,9510.13 4905.41,9509.93 4901.86,9509.40"/>
    </edge>
    <edge id=":02_29" function="internal">
        <lane id=":02_29_0" index="0" allow="bicycle" speed="8.95" length="13.59" shape="4910.69,9511.59 4913.26,9508.97 4917.34,9507.53 4922.93,9507.29"/>
    </edge>
    <edge id=":02_c0" function="crossing" crossingEdges="14WTE 14ETW">
        <lane id=":02_c0_0" index="0" allow="pedestrian" speed="1.00" length="6.40" width="4.00" shape="4921.04,9505.18 4920.69,9511.57"/>
    </edge>
    <edge id=":02_c1" function="crossing" crossingEdges="03NTS 03STN">
        <lane id=":02_c1_0" index="0" allow="pedestrian" speed="1.00" length="14.00" width="4.00" shape="4905.68,9502.17 4919.61,9503.51"/>
    </edge>
    <edge id=":02_c2" function="crossing" crossingEdges="02ETW 02WTE">
        <lane id=":02_c2_0" index="0" allow="pedestrian" speed="1.00" length="8.00" width="4.00" shape="4903.76,9511.50 4904.14,9503.51"/>
    </edge>
    <edge id=":02_c3" function="crossing" crossingEdges="02STN 02NTS">
        <lane id=":02_c3_0" index="0" allow="pedestrian" speed="1.00" length="8.00" width="4.00" shape="4915.76,9513.83 4907.78,9513.28"/>
    </edge>
    <edge id=":02_w0" function="walkingarea">
        <lane id=":02_w0_0" index="0" allow="pedestrian" speed="1.00" length="4.73" width="4.00" shape="4915.62,9515.83 4917.61,9515.96 4919.61,9516.10 4922.57,9513.68 4922.69,9511.68 4920.61,9511.69 4918.90,9511.97 4917.54,9512.53 4916.54,9513.36 4915.90,9514.45"/>
    </edge>
    <edge id=":02_w1" function="walkingarea">
        <lane id=":02_w1_0" index="0" allow="pedestrian" speed="1.00" length="2.89" width="4.00" shape="4923.04,9505.29 4923.15,9503.29 4921.80,9501.72 4919.81,9501.52 4919.80,9502.62 4920.01,9503.53 4920.44,9504.25 4921.09,9504.78 4921.96,9505.13"/>
    </edge>
    <edge id=":02_w2" function="walkingarea">
        <lane id=":02_w2_0" index="0" allow="pedestrian" speed="1.00" length="2.84" width="4.00" shape="4905.87,9500.18 4903.88,9499.99 4902.24,9501.41 4902.14,9503.41 4903.19,9503.37 4904.07,9503.12 4904.78,9502.68 4905.31,9502.05 4905.68,9501.21"/>
    </edge>
    <edge id=":02_w3" function="walkingarea">
        <lane id=":02_w3_0" index="0" allow="pedestrian" speed="1.00" length="4.00" width="4.00" shape="4901.77,9511.40 4901.67,9513.40 4903.65,9515.00 4905.64,9515.13 4907.64,9515.27 4907.54,9514.17 4907.10,9513.25 4906.29,9512.51 4905.14,9511.96 4903.63,9511.59"/>
    </edge>
    <edge id=":03_0" function="internal">
        <lane id=":03_0_0" index="0" allow="pedestrian" speed="4.82" length="4.66" width="2.00" shape="4960.81,9120.73 4959.38,9120.83 4958.33,9121.25 4957.65,9121.99 4957.35,9123.04"/>
    </edge>
    <edge id=":03_1" function="internal">
        <lane id=":03_1_0" index="0" allow="bicycle" speed="6.07" length="7.75" width="2.00" shape="4960.88,9118.74 4958.62,9118.92 4956.95,9119.67 4955.86,9120.98 4955.36,9122.85"/>
    </edge>
    <edge id=":03_2" function="internal">
        <lane id=":03_2_0" index="0" allow="bicycle" speed="10.42" length="25.96" width="2.00" shape="4960.88,9118.74 4953.51,9117.48 4948.42,9114.38 4945.61,9109.43 4945.07,9102.63"/>
    </edge>
    <edge id=":03_3" function="internal">
        <lane id=":03_3_0" index="0" disallow="pedestrian bicycle" speed="8.02" length="13.63" width="4.00" shape="4961.02,9115.14 4957.08,9115.47 4954.16,9116.80 4952.26,9119.13 4951.38,9122.47"/>
    </edge>
    <edge id=":03_4" function="internal">
        <lane id=":03_4_0" index="0" disallow="pedestrian bicycle" speed="9.20" length="19.65" width="4.00" shape="4961.02,9115.14 4955.45,9114.19 4951.59,9111.84 4949.46,9108.09 4949.06,9102.94"/>
    </edge>
    <edge id=":03_5" function="internal">
        <lane id=":03_5_0" index="0" allow="pedestrian" speed="4.39" length="4.05" width="2.00" shape="4959.03,9103.72 4959.10,9104.83 4959.51,9105.64 4960.27,9106.14 4961.37,9106.35"/>
    </edge>
    <edge id=":03_6" function="internal">
        <lane id=":03_6_0" index="0" allow="bicycle" speed="5.73" length="2.50" width="2.00" shape="4957.03,9103.56 4957.16,9105.59 4957.38,9106.00"/>
    </edge>
    <edge id=":03_7" function="internal">
        <lane id=":03_7_0" index="0" allow="bicycle" speed="13.89" length="19.36" width="2.00" shape="4957.03,9103.56 4955.36,9122.85"/>
    </edge>
    <edge id=":03_8" function="internal">
        <lane id=":03_8_0" index="0" disallow="pedestrian bicycle" speed="7.83" length="6.28" shape="4953.04,9103.25 4953.31,9106.93 4954.53,9109.21"/>
    </edge>
    <edge id=":03_9" function="internal">
        <lane id=":03_9_0" index="0" disallow="pedestrian bicycle" speed="13.89" length="19.29" width="4.00" shape="4953.04,9103.25 4951.38,9122.47"/>
    </edge>
    <edge id=":03_15" function="internal">
        <lane id=":03_15_0" index="0" allow="bicycle" speed="5.73" length="4.87" width="2.00" shape="4957.38,9106.00 4957.92,9107.06 4959.29,9107.98 4961.29,9108.34"/>
    </edge>
    <edge id=":03_16" function="internal">
        <lane id=":03_16_0" index="0" disallow="pedestrian bicycle" speed="7.83" length="7.40" shape="4954.53,9109.21 4954.75,9109.60 4957.36,9111.27 4961.15,9111.94"/>
    </edge>
    <edge id=":03_10" function="internal">
        <lane id=":03_10_0" index="0" allow="pedestrian" speed="13.89" length="19.12" width="2.00" shape="4941.42,9121.51 4943.07,9102.47"/>
        <lane id=":03_10_1" index="1" allow="bicycle" speed="13.89" length="19.12" width="2.00" shape="4943.41,9121.70 4945.07,9102.63"/>
    </edge>
    <edge id=":03_12" function="internal">
        <lane id=":03_12_0" index="0" allow="bicycle" speed="10.63" length="13.84" width="2.00" shape="4943.41,9121.70 4945.04,9115.61 4948.56,9111.36 4950.40,9110.54"/>
    </edge>
    <edge id=":03_13" function="internal">
        <lane id=":03_13_0" index="0" disallow="pedestrian bicycle" speed="13.89" length="19.21" width="4.00" shape="4947.40,9122.08 4949.06,9102.94"/>
    </edge>
    <edge id=":03_14" function="internal">
        <lane id=":03_14_0" index="0" disallow="pedestrian bicycle" speed="9.48" length="6.81" shape="4947.40,9122.08 4948.64,9117.46 4949.94,9115.91"/>
    </edge>
    <edge id=":03_17" function="internal">
        <lane id=":03_17_0" index="0" allow="bicycle" speed="10.63" length="11.25" width="2.00" shape="4950.40,9110.54 4953.98,9108.94 4961.29,9108.34"/>
    </edge>
    <edge id=":03_18" function="internal">
        <lane id=":03_18_0" index="0" disallow="pedestrian bicycle" speed="9.48" length="12.40" shape="4949.94,9115.91 4951.35,9114.23 4955.52,9112.39 4961.15,9111.94"/>
    </edge>
    <edge id=":03_c0" function="crossing" crossingEdges="17WTE 17ETW">
        <lane id=":03_c0_0" index="0" allow="pedestrian" speed="1.00" length="12.40" width="4.00" shape="4959.33,9107.27 4958.85,9119.66"/>
    </edge>
    <edge id=":03_c1" function="crossing" crossingEdges="04NTS 04STN">
        <lane id=":03_c1_0" index="0" allow="pedestrian" speed="1.00" length="14.00" width="4.00" shape="4943.92,9104.55 4957.87,9105.63"/>
    </edge>
    <edge id=":03_c2" function="crossing" crossingEdges="03STN 03NTS">
        <lane id=":03_c2_0" index="0" allow="pedestrian" speed="1.00" length="14.00" width="4.00" shape="4956.55,9120.96 4942.61,9119.61"/>
    </edge>
    <edge id=":03_w0" function="walkingarea">