<?xml version="1.0" encoding="UTF-8"?>

<!-- generated on 06/26/20 20:14:14 by Eclipse SUMO netedit Version 1.6.0
<configuration xmlns:xsi="http://www.w3.org/2001/XMLSchema-instance" xsi:noNamespaceSchemaLocation="http://sumo.dlr.de/xsd/netconvertConfiguration.xsd">

    <input>
        <sumo-net-file value="D:\PI_DSAC\PI_dsac_20200623\LasVSim\Map\Map3_G30\G30_zhengzhou.net.xml"/>
    </input>

    <output>
        <output-file value="D:\PI_DSAC\PI_dsac_20200623\LasVSim\Map\Map3_G30\G30_zhengzhou.net.xml"/>
    </output>

    <processing>
        <geometry.min-radius.fix.railways value="false"/>
        <geometry.max-grade.fix value="false"/>
        <offset.disable-normalization value="true"/>
        <lefthand value="false"/>
    </processing>

    <junctions>
        <no-turnarounds value="true"/>
        <junctions.corner-detail value="5"/>
        <junctions.limit-turn-speed value="5.5"/>
        <rectangular-lane-cut value="false"/>
    </junctions>

    <pedestrian>
        <walkingareas value="false"/>
    </pedestrian>

    <report>
        <aggregate-warnings value="5"/>
    </report>

</configuration>
-->

<net version="1.6" junctionCornerDetail="5" limitTurnSpeed="5.50" xmlns:xsi="http://www.w3.org/2001/XMLSchema-instance" xsi:noNamespaceSchemaLocation="http://sumo.dlr.de/xsd/net_file.xsd">

    <location netOffset="-724429.34,-3848163.32" convBoundary="3.86,9031.29,50000.69,12256.24" origBoundary="113.393970,34.656390,114.000851,35.231672" projParameter="+proj=utm +zone=49 +ellps=WGS84 +datum=WGS84 +units=m +no_defs"/>

    <type id="highway.bridleway" priority="1" numLanes="1" speed="2.78" allow="pedestrian" oneway="1" width="2.00"/>
    <type id="highway.bus_guideway" priority="1" numLanes="1" speed="27.78" allow="bus" oneway="1"/>
    <type id="highway.cycleway" priority="1" numLanes="1" speed="8.33" allow="bicycle" oneway="0" width="1.00"/>
    <type id="highway.footway" priority="1" numLanes="1" speed="2.78" allow="pedestrian" oneway="1" width="2.00"/>
    <type id="highway.ford" priority="1" numLanes="1" speed="2.78" allow="army" oneway="0"/>
    <type id="highway.living_street" priority="2" numLanes="1" speed="2.78" disallow="tram rail_urban rail rail_electric rail_fast ship" oneway="0"/>
    <type id="highway.motorway" priority="14" numLanes="2" speed="39.44" allow="private emergency authority army vip passenger hov taxi bus coach delivery truck trailer motorcycle evehicle custom1 custom2" oneway="1"/>
    <type id="highway.motorway_link" priority="9" numLanes="1" speed="22.22" allow="private emergency authority army vip passenger hov taxi bus coach delivery truck trailer motorcycle evehicle custom1 custom2" oneway="1"/>
    <type id="highway.path" priority="1" numLanes="1" speed="2.78" allow="pedestrian bicycle" oneway="1" width="2.00"/>
    <type id="highway.pedestrian" priority="1" numLanes="1" speed="2.78" allow="pedestrian" oneway="1" width="2.00"/>
    <type id="highway.primary" priority="12" numLanes="2" speed="27.78" disallow="tram rail_urban rail rail_electric rail_fast ship" oneway="0"/>
    <type id="highway.primary_link" priority="7" numLanes="1" speed="22.22" disallow="tram rail_urban rail rail_electric rail_fast ship" oneway="0"/>
    <type id="highway.raceway" priority="15" numLanes="2" speed="83.33" allow="vip" oneway="0"/>
    <type id="highway.residential" priority="3" numLanes="1" speed="13.89" disallow="tram rail_urban rail rail_electric rail_fast ship" oneway="0"/>
    <type id="highway.secondary" priority="11" numLanes="1" speed="27.78" disallow="tram rail_urban rail rail_electric rail_fast ship" oneway="0"/>
    <type id="highway.secondary_link" priority="6" numLanes="1" speed="22.22" disallow="tram rail_urban rail rail_electric rail_fast ship" oneway="0"/>
    <type id="highway.service" priority="1" numLanes="1" speed="5.56" allow="pedestrian delivery bicycle" oneway="0"/>
    <type id="highway.stairs" priority="1" numLanes="1" speed="1.39" allow="pedestrian" oneway="1" width="2.00"/>
    <type id="highway.step" priority="1" numLanes="1" speed="1.39" allow="pedestrian" oneway="1" width="2.00"/>
    <type id="highway.steps" priority="1" numLanes="1" speed="1.39" allow="pedestrian" oneway="1" width="2.00"/>
    <type id="highway.tertiary" priority="10" numLanes="1" speed="22.22" disallow="tram rail_urban rail rail_electric rail_fast ship" oneway="0"/>
    <type id="highway.tertiary_link" priority="5" numLanes="1" speed="22.22" disallow="tram rail_urban rail rail_electric rail_fast ship" oneway="0"/>
    <type id="highway.track" priority="1" numLanes="1" speed="5.56" disallow="tram rail_urban rail rail_electric rail_fast ship" oneway="0"/>
    <type id="highway.trunk" priority="13" numLanes="2" speed="27.78" disallow="pedestrian bicycle tram rail_urban rail rail_electric rail_fast ship" oneway="0"/>
    <type id="highway.trunk_link" priority="8" numLanes="1" speed="22.22" disallow="pedestrian bicycle tram rail_urban rail rail_electric rail_fast ship" oneway="0"/>
    <type id="highway.unclassified" priority="4" numLanes="1" speed="13.89" disallow="tram rail_urban rail rail_electric rail_fast ship" oneway="0"/>
    <type id="highway.unsurfaced" priority="1" numLanes="1" speed="8.33" disallow="tram rail_urban rail rail_electric rail_fast ship" oneway="0"/>
    <type id="railway.highspeed" priority="21" numLanes="1" speed="69.44" allow="rail_fast" oneway="1"/>
    <type id="railway.light_rail" priority="19" numLanes="1" speed="27.78" allow="rail_urban" oneway="1"/>
    <type id="railway.preserved" priority="16" numLanes="1" speed="27.78" allow="rail" oneway="1"/>
    <type id="railway.rail" priority="20" numLanes="1" speed="44.44" allow="rail" oneway="1"/>
    <type id="railway.subway" priority="18" numLanes="1" speed="27.78" allow="rail_urban" oneway="1"/>
    <type id="railway.tram" priority="17" numLanes="1" speed="13.89" allow="tram" oneway="1"/>

    <edge id=":1354555583_0" function="internal">
        <lane id=":1354555583_0_0" index="0" allow="private emergency authority army vip passenger hov taxi bus coach delivery truck trailer motorcycle evehicle custom1 custom2" speed="30.83" length="40.88" width="3.75" shape="31776.17,9250.20 31770.58,9249.33 31761.64,9247.96 31749.88,9246.60 31735.85,9245.77"/>
        <lane id=":1354555583_0_1" index="1" allow="private emergency authority army vip passenger hov taxi bus coach delivery truck trailer motorcycle evehicle custom1 custom2" speed="30.83" length="40.88" width="3.75" shape="31776.17,9250.20 31770.60,9248.74 31761.69,9246.09 31749.97,9243.44 31735.95,9242.02"/>
    </edge>
    <edge id=":1354555583_2" function="internal">
        <lane id=":1354555583_2_0" index="0" allow="private emergency authority army vip passenger hov taxi bus coach delivery truck trailer motorcycle evehicle custom1 custom2" speed="39.44" length="40.56" width="3.75" shape="31776.45,9246.06 31735.85,9245.77"/>
        <lane id=":1354555583_2_1" index="1" allow="private emergency authority army vip passenger hov taxi bus coach delivery truck trailer motorcycle evehicle custom1 custom2" speed="39.44" length="40.56" width="3.75" shape="31776.52,9242.31 31735.95,9242.02"/>
        <lane id=":1354555583_2_2" index="2" allow="private emergency authority army vip passenger hov taxi bus coach delivery trailer evehicle custom1 custom2" speed="39.44" length="40.56" width="3.75" shape="31776.59,9238.56 31736.05,9238.27"/>
        <lane id=":1354555583_2_3" index="3" allow="private emergency authority army vip passenger hov taxi bus coach delivery trailer evehicle custom1 custom2" speed="39.44" length="40.56" width="3.75" shape="31776.66,9234.81 31736.15,9234.52"/>
    </edge>
    <edge id=":1923577962_0" function="internal">
        <lane id=":1923577962_0_0" index="0" allow="private emergency authority army vip passenger hov taxi bus coach delivery truck trailer motorcycle evehicle custom1 custom2" speed="22.22" length="0.29" width="3.75" shape="848.05,12117.00 847.83,12117.20"/>
    </edge>
    <edge id=":2284895923_0" function="internal">
        <lane id=":2284895923_0_0" index="0" allow="private emergency authority army vip passenger hov taxi bus coach delivery truck trailer motorcycle evehicle custom1 custom2" speed="39.44" length="0.35" width="3.75" shape="25326.31,10446.79 25325.87,10446.99"/>
        <lane id=":2284895923_0_1" index="1" allow="private emergency authority army vip passenger hov taxi bus coach delivery truck trailer motorcycle evehicle custom1 custom2" speed="39.44" length="0.35" width="3.75" shape="25324.69,10443.41 25324.34,10443.57"/>
        <lane id=":2284895923_0_2" index="2" allow="private emergency authority army vip passenger hov taxi bus coach delivery trailer evehicle custom1 custom2" speed="39.44" length="0.35" width="3.75" shape="25323.08,10440.02 25322.80,10440.15"/>
        <lane id=":2284895923_0_3" index="3" allow="private emergency authority army vip passenger hov taxi bus coach delivery trailer evehicle custom1 custom2" speed="39.44" length="0.35" width="3.75" shape="25321.46,10436.64 25321.27,10436.73"/>
    </edge>
    <edge id=":2284895981_0" function="internal">
        <lane id=":2284895981_0_0" index="0" allow="private emergency authority army vip passenger hov taxi bus coach delivery truck trailer motorcycle evehicle custom1 custom2" speed="39.44" length="0.10" width="3.75" shape="13520.37,10244.71 13520.37,10244.71"/>
        <lane id=":2284895981_0_1" index="1" allow="private emergency authority army vip passenger hov taxi bus coach delivery truck trailer motorcycle evehicle custom1 custom2" speed="39.44" length="0.10" width="3.75" shape="13521.50,10241.14 13521.50,10241.14"/>
        <lane id=":2284895981_0_2" index="2" allow="private emergency authority army vip passenger hov taxi bus coach delivery trailer evehicle custom1 custom2" speed="39.44" length="0.10" width="3.75" shape="13522.62,10237.56 13522.62,10237.56"/>
        <lane id=":2284895981_0_3" index="3" allow="private emergency authority army vip passenger hov taxi bus coach delivery trailer evehicle custom1 custom2" speed="39.44" length="0.10" width="3.75" shape="13523.75,10233.99 13523.75,10233.99"/>
    </edge>
    <edge id=":2284895994_0" function="internal">
        <lane id=":2284895994_0_0" index="0" allow="private emergency authority army vip passenger hov taxi bus coach delivery truck trailer motorcycle evehicle custom1 custom2" speed="39.44" length="0.10" width="3.75" shape="13579.97,10263.52 13579.97,10263.52"/>
        <lane id=":2284895994_0_1" index="1" allow="private emergency authority army vip passenger hov taxi bus coach delivery truck trailer motorcycle evehicle custom1 custom2" speed="39.44" length="0.10" width="3.75" shape="13581.10,10259.95 13581.10,10259.95"/>
        <lane id=":2284895994_0_2" index="2" allow="private emergency authority army vip passenger hov taxi bus coach delivery trailer evehicle custom1 custom2" speed="39.44" length="0.10" width="3.75" shape="13582.22,10256.37 13582.22,10256.37"/>
        <lane id=":2284895994_0_3" index="3" allow="private emergency authority army vip passenger hov taxi bus coach delivery trailer evehicle custom1 custom2" speed="39.44" length="0.10" width="3.75" shape="13583.35,10252.80 13583.35,10252.80"/>
    </edge>
    <edge id=":2284896022_0" function="internal">
        <lane id=":2284896022_0_0" index="0" allow="private emergency authority army vip passenger hov taxi bus coach delivery truck trailer motorcycle evehicle custom1 custom2" speed="39.44" length="22.57" width="3.75" shape="13737.24,10313.56 13715.74,10306.39"/>
        <lane id=":2284896022_0_1" index="1" allow="private emergency authority army vip passenger hov taxi bus coach delivery truck trailer motorcycle evehicle custom1 custom2" speed="39.44" length="22.57" width="3.75" shape="13738.31,10309.96 13716.87,10302.82"/>
        <lane id=":2284896022_0_2" index="2" allow="private emergency authority army vip passenger hov taxi bus coach delivery trailer evehicle custom1 custom2" speed="39.44" length="22.57" width="3.75" shape="13739.38,10306.37 13718.00,10299.24"/>
        <lane id=":2284896022_0_3" index="3" allow="private emergency authority army vip passenger hov taxi bus coach delivery trailer evehicle custom1 custom2" speed="39.44" length="22.57" width="3.75" shape="13740.45,10302.78 13719.13,10295.66"/>
    </edge>
    <edge id=":2284896071_0" function="internal">
        <lane id=":2284896071_0_0" index="0" allow="private emergency authority army vip passenger hov taxi bus coach delivery truck trailer motorcycle evehicle custom1 custom2" speed="22.22" length="0.10" width="3.75" shape="13442.22,10402.97 13442.22,10402.97"/>
    </edge>
    <edge id=":2284896231_0" function="internal">
        <lane id=":2284896231_0_0" index="0" allow="private emergency authority army vip passenger hov taxi bus coach delivery truck trailer motorcycle evehicle custom1 custom2" speed="30.83" length="18.94" width="3.75" shape="5859.03,10570.14 5853.30,10572.39 5849.17,10574.95 5845.96,10577.55 5843.01,10579.94"/>
    </edge>
    <edge id=":2284896231_1" function="internal">
        <lane id=":2284896231_1_0" index="0" allow="private emergency authority army vip passenger hov taxi bus coach delivery truck trailer motorcycle evehicle custom1 custom2" speed="39.44" length="18.95" width="3.75" shape="5859.03,10570.14 5840.79,10575.40"/>
        <lane id=":2284896231_1_1" index="1" allow="private emergency authority army vip passenger hov taxi bus coach delivery truck trailer motorcycle evehicle custom1 custom2" speed="39.44" length="18.95" width="3.75" shape="5857.96,10566.55 5839.74,10571.80"/>
        <lane id=":2284896231_1_2" index="2" allow="private emergency authority army vip passenger hov taxi bus coach delivery trailer evehicle custom1 custom2" speed="39.44" length="18.95" width="3.75" shape="5856.89,10562.95 5838.69,10568.20"/>
        <lane id=":2284896231_1_3" index="3" allow="private emergency authority army vip passenger hov taxi bus coach delivery trailer evehicle custom1 custom2" speed="39.44" length="18.95" width="3.75" shape="5855.82,10559.36 5837.64,10564.60"/>
    </edge>
    <edge id=":2284896243_0" function="internal">
        <lane id=":2284896243_0_0" index="0" allow="private emergency authority army vip passenger hov taxi bus coach delivery truck trailer motorcycle evehicle custom1 custom2" speed="22.22" length="0.35" width="3.75" shape="5809.63,10608.33 5809.55,10608.41 5809.50,10608.46 5809.46,10608.52 5809.40,10608.61"/>
    </edge>
    <edge id=":2284896360_0" function="internal">
        <lane id=":2284896360_0_0" index="0" allow="private emergency authority army vip passenger hov taxi bus coach delivery truck trailer motorcycle evehicle custom1 custom2" speed="22.22" length="0.70" width="3.75" shape="5811.59,10696.82 5811.72,10696.98 5811.82,10697.08 5811.94,10697.16 5812.12,10697.26"/>
    </edge>
    <edge id=":2284896385_0" function="internal">
        <lane id=":2284896385_0_0" index="0" allow="private emergency authority army vip passenger hov taxi bus coach delivery truck trailer motorcycle evehicle custom1 custom2" speed="22.22" length="0.33" width="3.75" shape="5819.08,10710.85 5818.98,10710.82 5818.92,10710.80 5818.86,10710.77 5818.77,10710.72"/>
    </edge>
    <edge id=":2284896470_0" function="internal">
        <lane id=":2284896470_0_0" index="0" allow="private emergency authority army vip passenger hov taxi bus coach delivery truck trailer motorcycle evehicle custom1 custom2" speed="30.83" length="19.38" width="3.75" shape="21722.39,11260.31 21718.94,11258.79 21715.22,11257.16 21710.66,11255.85 21704.67,11255.34"/>
        <lane id=":2284896470_0_1" index="1" allow="private emergency authority army vip passenger hov taxi bus coach delivery truck trailer motorcycle evehicle custom1 custom2" speed="30.83" length="19.38" width="3.75" shape="21722.39,11260.31 21719.03,11258.21 21715.47,11255.28 21710.93,11252.69 21704.65,11251.59"/>
    </edge>
    <edge id=":2284896470_2" function="internal">
        <lane id=":2284896470_2_0" index="0" allow="private emergency authority army vip passenger hov taxi bus coach delivery truck trailer motorcycle evehicle custom1 custom2" speed="39.44" length="18.62" width="3.75" shape="21723.29,11255.27 21704.67,11255.34"/>
        <lane id=":2284896470_2_1" index="1" allow="private emergency authority army vip passenger hov taxi bus coach delivery truck trailer motorcycle evehicle custom1 custom2" speed="39.44" length="18.62" width="3.75" shape="21723.27,11251.52 21704.65,11251.59"/>
        <lane id=":2284896470_2_2" index="2" allow="private emergency authority army vip passenger hov taxi bus coach delivery trailer evehicle custom1 custom2" speed="39.44" length="18.62" width="3.75" shape="21723.26,11247.77 21704.64,11247.84"/>
        <lane id=":2284896470_2_3" index="3" allow="private emergency authority army vip passenger hov taxi bus coach delivery trailer evehicle custom1 custom2" speed="39.44" length="18.62" width="3.75" shape="21723.25,11244.02 21704.62,11244.09"/>
    </edge>
    <edge id=":2284896542_0" function="internal">
        <lane id=":2284896542_0_0" index="0" allow="private emergency authority army vip passenger hov taxi bus coach delivery truck trailer motorcycle evehicle custom1 custom2" speed="39.44" length="3.06" width="3.75" shape="17491.34,11270.23 17490.40,11270.32 17489.77,11270.57 17489.15,11270.81 17488.21,11270.88"/>
        <lane id=":2284896542_0_1" index="1" allow="private emergency authority army vip passenger hov taxi bus coach delivery truck trailer motorcycle evehicle custom1 custom2" speed="39.44" length="3.06" width="3.75" shape="17491.49,11267.04 17488.47,11267.14"/>
        <lane id=":2284896542_0_2" index="2" allow="private emergency authority army vip passenger hov taxi bus coach delivery trailer evehicle custom1 custom2" speed="39.44" length="3.06" width="3.75" shape="17491.64,11263.84 17490.77,11263.76 17490.18,11263.63 17489.59,11263.50 17488.72,11263.40"/>
        <lane id=":2284896542_0_3" index="3" allow="private emergency authority army vip passenger hov taxi bus coach delivery trailer evehicle custom1 custom2" speed="39.44" length="3.06" width="3.75" shape="17491.79,11260.65 17490.93,11260.48 17490.39,11260.16 17489.84,11259.84 17488.98,11259.66"/>
    </edge>
    <edge id=":2284896616_0" function="internal">
        <lane id=":2284896616_0_0" index="0" allow="private emergency authority army vip passenger hov taxi bus coach delivery truck trailer motorcycle evehicle custom1 custom2" speed="30.83" length="10.12" width="3.75" shape="1220.75,11944.78 1218.02,11944.68 1216.15,11943.24 1214.30,11941.83 1211.60,11941.85"/>
    </edge>
    <edge id=":2284896616_1" function="internal">
        <lane id=":2284896616_1_0" index="0" allow="private emergency authority army vip passenger hov taxi bus coach delivery truck trailer motorcycle evehicle custom1 custom2" speed="39.44" length="7.93" width="3.75" shape="1220.75,11944.78 1213.37,11946.90"/>
        <lane id=":2284896616_1_1" index="1" allow="private emergency authority army vip passenger hov taxi bus coach delivery truck trailer motorcycle evehicle custom1 custom2" speed="39.44" length="7.93" width="3.75" shape="1219.67,11941.19 1212.13,11943.35"/>
        <lane id=":2284896616_1_2" index="2" allow="private emergency authority army vip passenger hov taxi bus coach delivery trailer evehicle custom1 custom2" speed="39.44" length="7.93" width="3.75" shape="1218.59,11937.60 1210.89,11939.80"/>
        <lane id=":2284896616_1_3" index="3" allow="private emergency authority army vip passenger hov taxi bus coach delivery trailer evehicle custom1 custom2" speed="39.44" length="7.93" width="3.75" shape="1217.51,11934.01 1209.65,11936.25"/>
    </edge>
    <edge id=":343509100_0" function="internal">
        <lane id=":343509100_0_0" index="0" allow="private emergency authority army vip passenger hov taxi bus coach delivery truck trailer motorcycle evehicle custom1 custom2" speed="39.44" length="0.30" width="3.75" shape="1448.16,11872.80 1447.88,11872.88"/>
        <lane id=":343509100_0_1" index="1" allow="private emergency authority army vip passenger hov taxi bus coach delivery truck trailer motorcycle evehicle custom1 custom2" speed="39.44" length="0.30" width="3.75" shape="1447.07,11869.21 1446.78,11869.30"/>
        <lane id=":343509100_0_2" index="2" allow="private emergency authority army vip passenger hov taxi bus coach delivery trailer evehicle custom1 custom2" speed="39.44" length="0.30" width="3.75" shape="1445.98,11865.62 1445.69,11865.71"/>
        <lane id=":343509100_0_3" index="3" allow="private emergency authority army vip passenger hov taxi bus coach delivery trailer evehicle custom1 custom2" speed="39.44" length="0.30" width="3.75" shape="1444.88,11862.04 1444.59,11862.12"/>
    </edge>
    <edge id=":343509101_0" function="internal">
        <lane id=":343509101_0_0" index="0" allow="private emergency authority army vip passenger hov taxi bus coach delivery truck trailer motorcycle evehicle custom1 custom2" speed="39.44" length="0.52" width="3.75" shape="1431.82,11877.78 1431.52,11877.88"/>
        <lane id=":343509101_0_1" index="1" allow="private emergency authority army vip passenger hov taxi bus coach delivery truck trailer motorcycle evehicle custom1 custom2" speed="39.44" length="0.52" width="3.75" shape="1430.73,11874.20 1430.30,11874.34"/>
        <lane id=":343509101_0_2" index="2" allow="private emergency authority army vip passenger hov taxi bus coach delivery trailer evehicle custom1 custom2" speed="39.44" length="0.52" width="3.75" shape="1429.63,11870.61 1429.07,11870.79"/>
        <lane id=":343509101_0_3" index="3" allow="private emergency authority army vip passenger hov taxi bus coach delivery trailer evehicle custom1 custom2" speed="39.44" length="0.52" width="3.75" shape="1428.54,11867.02 1427.85,11867.25"/>
    </edge>
    <edge id=":343509763_0" function="internal">
        <lane id=":343509763_0_0" index="0" allow="private emergency authority army vip passenger hov taxi bus coach delivery truck trailer motorcycle evehicle custom1 custom2" speed="39.44" length="0.30" width="3.75" shape="3639.41,11219.50 3639.14,11219.58"/>
        <lane id=":343509763_0_1" index="1" allow="private emergency authority army vip passenger hov taxi bus coach delivery truck trailer motorcycle evehicle custom1 custom2" speed="39.44" length="0.30" width="3.75" shape="3638.35,11215.91 3638.07,11215.99"/>
        <lane id=":343509763_0_2" index="2" allow="private emergency authority army vip passenger hov taxi bus coach delivery trailer evehicle custom1 custom2" speed="39.44" length="0.30" width="3.75" shape="3637.29,11212.31 3637.00,11212.40"/>
        <lane id=":343509763_0_3" index="3" allow="private emergency authority army vip passenger hov taxi bus coach delivery trailer evehicle custom1 custom2" speed="39.44" length="0.30" width="3.75" shape="3636.24,11208.71 3635.93,11208.80"/>
    </edge>
    <edge id=":343509766_0" function="internal">
        <lane id=":343509766_0_0" index="0" allow="private emergency authority army vip passenger hov taxi bus coach delivery truck trailer motorcycle evehicle custom1 custom2" speed="39.44" length="0.30" width="3.75" shape="3543.06,11248.17 3542.75,11248.26"/>
        <lane id=":343509766_0_1" index="1" allow="private emergency authority army vip passenger hov taxi bus coach delivery truck trailer motorcycle evehicle custom1 custom2" speed="39.44" length="0.30" width="3.75" shape="3541.99,11244.57 3541.69,11244.66"/>
        <lane id=":343509766_0_2" index="2" allow="private emergency authority army vip passenger hov taxi bus coach delivery trailer evehicle custom1 custom2" speed="39.44" length="0.30" width="3.75" shape="3540.92,11240.98 3540.64,11241.06"/>
        <lane id=":343509766_0_3" index="3" allow="private emergency authority army vip passenger hov taxi bus coach delivery trailer evehicle custom1 custom2" speed="39.44" length="0.30" width="3.75" shape="3539.85,11237.39 3539.58,11237.46"/>
    </edge>
    <edge id=":343510671_0" function="internal">
        <lane id=":343510671_0_0" index="0" allow="private emergency authority army vip passenger hov taxi bus coach delivery truck trailer motorcycle evehicle custom1 custom2" speed="39.44" length="0.35" width="3.75" shape="5534.37,10666.17 5533.91,10666.32"/>
        <lane id=":343510671_0_1" index="1" allow="private emergency authority army vip passenger hov taxi bus coach delivery truck trailer motorcycle evehicle custom1 custom2" speed="39.44" length="0.35" width="3.75" shape="5533.21,10662.61 5532.83,10662.73"/>
        <lane id=":343510671_0_2" index="2" allow="private emergency authority army vip passenger hov taxi bus coach delivery trailer evehicle custom1 custom2" speed="39.44" length="0.35" width="3.75" shape="5532.04,10659.04 5531.75,10659.13"/>
        <lane id=":343510671_0_3" index="3" allow="private emergency authority army vip passenger hov taxi bus coach delivery trailer evehicle custom1 custom2" speed="39.44" length="0.35" width="3.75" shape="5530.88,10655.48 5530.67,10655.54"/>
    </edge>
    <edge id=":343510672_0" function="internal">
        <lane id=":343510672_0_0" index="0" allow="private emergency authority army vip passenger hov taxi bus coach delivery truck trailer motorcycle evehicle custom1 custom2" speed="39.44" length="0.29" width="3.75" shape="5473.19,10684.58 5472.84,10684.69"/>
        <lane id=":343510672_0_1" index="1" allow="private emergency authority army vip passenger hov taxi bus coach delivery truck trailer motorcycle evehicle custom1 custom2" speed="39.44" length="0.29" width="3.75" shape="5472.11,10680.99 5471.81,10681.08"/>
        <lane id=":343510672_0_2" index="2" allow="private emergency authority army vip passenger hov taxi bus coach delivery trailer evehicle custom1 custom2" speed="39.44" length="0.29" width="3.75" shape="5471.03,10677.40 5470.78,10677.48"/>
        <lane id=":343510672_0_3" index="3" allow="private emergency authority army vip passenger hov taxi bus coach delivery trailer evehicle custom1 custom2" speed="39.44" length="0.29" width="3.75" shape="5469.95,10673.81 5469.74,10673.87"/>
    </edge>
    <edge id=":343511318_0" function="internal">
        <lane id=":343511318_0_0" index="0" allow="private emergency authority army vip passenger hov taxi bus coach delivery truck trailer motorcycle evehicle custom1 custom2" speed="39.44" length="0.45" width="3.75" shape="6312.07,10435.25 6311.81,10435.33"/>
        <lane id=":343511318_0_1" index="1" allow="private emergency authority army vip passenger hov taxi bus coach delivery truck trailer motorcycle evehicle custom1 custom2" speed="39.44" length="0.45" width="3.75" shape="6311.05,10431.64 6310.67,10431.76"/>
        <lane id=":343511318_0_2" index="2" allow="private emergency authority army vip passenger hov taxi bus coach delivery trailer evehicle custom1 custom2" speed="39.44" length="0.45" width="3.75" shape="6310.03,10428.03 6309.54,10428.18"/>
        <lane id=":343511318_0_3" index="3" allow="private emergency authority army vip passenger hov taxi bus coach delivery trailer evehicle custom1 custom2" speed="39.44" length="0.45" width="3.75" shape="6309.00,10424.43 6308.40,10424.61"/>
    </edge>
    <edge id=":343511321_0" function="internal">
        <lane id=":343511321_0_0" index="0" allow="private emergency authority army vip passenger hov taxi bus coach delivery truck trailer motorcycle evehicle custom1 custom2" speed="39.44" length="0.31" width="3.75" shape="6276.99,10446.39 6276.58,10446.52"/>
        <lane id=":343511321_0_1" index="1" allow="private emergency authority army vip passenger hov taxi bus coach delivery truck trailer motorcycle evehicle custom1 custom2" speed="39.44" length="0.31" width="3.75" shape="6275.86,10442.82 6275.52,10442.92"/>
        <lane id=":343511321_0_2" index="2" allow="private emergency authority army vip passenger hov taxi bus coach delivery trailer evehicle custom1 custom2" speed="39.44" length="0.31" width="3.75" shape="6274.72,10439.25 6274.46,10439.33"/>
        <lane id=":343511321_0_3" index="3" allow="private emergency authority army vip passenger hov taxi bus coach delivery trailer evehicle custom1 custom2" speed="39.44" length="0.31" width="3.75" shape="6273.59,10435.67 6273.40,10435.73"/>
    </edge>
    <edge id=":343513314_0" function="internal">
        <lane id=":343513314_0_0" index="0" allow="private emergency authority army vip passenger hov taxi bus coach delivery truck trailer motorcycle evehicle custom1 custom2" speed="39.44" length="0.35" width="3.75" shape="11587.09,9868.47 11586.87,9868.46"/>
        <lane id=":343513314_0_1" index="1" allow="private emergency authority army vip passenger hov taxi bus coach delivery truck trailer motorcycle evehicle custom1 custom2" speed="39.44" length="0.35" width="3.75" shape="11587.26,9864.72 11586.96,9864.71"/>
        <lane id=":343513314_0_2" index="2" allow="private emergency authority army vip passenger hov taxi bus coach delivery trailer evehicle custom1 custom2" speed="39.44" length="0.35" width="3.75" shape="11587.44,9860.98 11587.05,9860.96"/>
        <lane id=":343513314_0_3" index="3" allow="private emergency authority army vip passenger hov taxi bus coach delivery trailer evehicle custom1 custom2" speed="39.44" length="0.35" width="3.75" shape="11587.62,9857.23 11587.14,9857.21"/>
    </edge>
    <edge id=":343513317_0" function="internal">
        <lane id=":343513317_0_0" index="0" allow="private emergency authority army vip passenger hov taxi bus coach delivery truck trailer motorcycle evehicle custom1 custom2" speed="39.44" length="0.53" width="3.75" shape="11537.60,9867.29 11537.28,9867.29"/>