<?xml version="1.0" encoding="UTF-8"?>

<!-- generated on 04/10/20 05:57:13 by Eclipse SUMO netedit Version 1.0.0
<configuration xmlns:xsi="http://www.w3.org/2001/XMLSchema-instance" xsi:noNamespaceSchemaLocation="http://sumo.dlr.de/xsd/netconvertConfiguration.xsd">

    <input>
        <sumo-net-file value="C:\Users\DuanJingliang\Desktop\PI_DSAC\PI_dsac_20200401\LasVSim\Map\Map2_Highway\grid-map-3lane.net.xml"/>
    </input>

    <output>
        <output-file value="C:\Users\DuanJingliang\Desktop\PI_DSAC\PI_dsac_20200401\LasVSim\Map\Map2_Highway\grid-map-3lane.net.xml"/>
    </output>

    <processing>
        <offset.disable-normalization value="true"/>
        <lefthand value="false"/>
    </processing>

    <junctions>
        <no-internal-links value="true"/>
        <no-turnarounds value="true"/>
        <junctions.corner-detail value="0"/>
        <junctions.limit-turn-speed value="-1"/>
        <rectangular-lane-cut value="false"/>
    </junctions>

    <pedestrian>
        <walkingareas value="false"/>
    </pedestrian>

</configuration>
-->

<net version="1.0" xmlns:xsi="http://www.w3.org/2001/XMLSchema-instance" xsi:noNamespaceSchemaLocation="http://sumo.dlr.de/xsd/net_file.xsd">

    <location netOffset="0.00,0.00" convBoundary="-2000.00,0.00,2000.00,0.00" origBoundary="-10000000000.00,-10000000000.00,10000000000.00,10000000000.00" projParameter="!"/>

    <edge id="-gneE18" from="10" to="14" priority="-1" length="4000.00">
        <lane id="-gneE18_0" index="0" speed="34.00" length="4000.00" width="3.75" shape="-2000.00,-13.125 2000.00,-13.125"/>
        <lane id="-gneE18_1" index="1" speed="34.00" length="4000.00" width="3.75" shape="-2000.00,-9.375 2000.00,-9.375"/>
        <lane id="-gneE18_2" index="2" speed="34.00" length="4000.00" width="3.75" shape="-2000.00,-5.625 2000.00,-5.625"/>
        <lane id="-gneE18_3" index="3" speed="34.00" length="4000.00" width="3.75" shape="-2000.00,-1.875 2000.00,-1.875"/>
    </edge>
    <edge id="gneE18" from="14" to="10" priority="-1" length="4000.00">
        <lane id="gneE18_0" index="0" speed="34.00" length="4000.00" width="3.75" shape="2000.00,13.125 -2000.00,13.125"/>
        <lane id="gneE18_1" index="1" speed="34.00" length="4000.00" width="3.75" shape="2000.00,9.375 -2000.00,9.375"/>
        <lane id="gneE18_2" index="2" speed="34.00" length="4000.00" width="3.75" shape="2000.00,5.625 -2000.00,5.625"/>
        <lane id="gneE18_3" index="3" speed="34.00" length="4000.00" width="3.75" shape="2000.00,1.875 -2000.00,1.875"/>
    </edge>

    <junction id="10" type="dead_end" x="-2000.00" y="0.00" incLanes="gneE18_0 gneE18_1 gneE18_2 gneE18_3" intLanes="" shape="-2030.00,-15.00 -2030.00,15.00 -2000.00,15.00 -2000.00,-15.00" customShape="1"/>
    <junction id="14" type="dead_end" x="2000.00" y="0.00" incLanes="-gneE18_0 -gneE18_1 -gneE18_2 -gneE18_3" intLanes="" shape="2000.00,-15.00 2000.00,15.00 2030.00,15.00 2030.00,-15.00" customShape="1"/>

</net>
