<?xml version="1.0" encoding="UTF-8"?>

<!-- generated on 07/27/20 23:20:28 by Eclipse SUMO netedit Version 1.6.0
<configuration xmlns:xsi="http://www.w3.org/2001/XMLSchema-instance" xsi:noNamespaceSchemaLocation="http://sumo.dlr.de/xsd/netconvertConfiguration.xsd">

    <input>
        <sumo-net-file value="D:\PI_DSAC\PI_dsac_20200724\LasVSim\Map\Map3_G30\simu\G30_zhengzhou.net.xml"/>
    </input>

    <output>
        <output-file value="D:\PI_DSAC\PI_dsac_20200724\LasVSim\Map\Map3_G30\simu\G30_zhengzhou.net.xml"/>
    </output>

    <processing>
        <geometry.min-radius.fix.railways value="false"/>
        <geometry.max-grade.fix value="false"/>
        <offset.disable-normalization value="true"/>
        <lefthand value="false"/>
    </processing>

    <junctions>
        <no-internal-links value="true"/>
        <no-turnarounds value="true"/>
        <junctions.corner-detail value="5"/>
        <junctions.limit-turn-speed value="5.5"/>
        <rectangular-lane-cut value="false"/>
    </junctions>

    <pedestrian>
        <walkingareas value="false"/>
    </pedestrian>

    <report>
        <aggregate-warnings value="5"/>
    </report>

</configuration>
-->

<net version="1.6" junctionCornerDetail="5" limitTurnSpeed="5.50" xmlns:xsi="http://www.w3.org/2001/XMLSchema-instance" xsi:noNamespaceSchemaLocation="http://sumo.dlr.de/xsd/net_file.xsd">

    <location netOffset="-724429.34,-3848163.32" convBoundary="3.86,9162.30,31841.55,12256.24" origBoundary="113.393970,34.656390,114.000851,35.231672" projParameter="+proj=utm +zone=49 +ellps=WGS84 +datum=WGS84 +units=m +no_defs"/>

    <edge id="Route_0" from="Jun_0" to="Jun_1" priority="14" type="highway.motorway" spreadType="center" shape="3.86,12225.62 168.88,12194.88 476.83,12116.23 577.81,12087.45 675.37,12061.49 909.62,12000.91 962.44,11987.25 1033.65,11969.45 1213.38,11919.93 1336.45,11879.03 1444.82,11846.04 1999.51,11682.14 2159.32,11634.50 2486.84,11537.85 2868.96,11425.36 2992.40,11387.77 3629.73,11199.88 4015.78,11086.22 5041.51,10785.09 5518.13,10643.75 5689.28,10594.21 6018.12,10495.43 6178.72,10447.64 6270.65,10421.47 6305.52,10410.39 6994.53,10216.12 7171.46,10174.26 7571.51,10089.25 7877.26,10035.90 8012.15,10010.94 8061.92,10004.86 8171.32,9991.52 8445.38,9964.07 8685.29,9946.07 9009.02,9929.73 9853.93,9898.82 9891.58,9897.23 9959.31,9894.76 10944.58,9856.65 11318.09,9842.80 11538.74,9846.13 11614.42,9848.28 11808.76,9854.64 11942.14,9864.78 12024.16,9872.89 12131.83,9885.13 12182.52,9891.66 12493.92,9940.37 12750.15,9996.27 12849.73,10018.71 13043.03,10070.03 13197.08,10115.97 13352.99,10164.98 13692.86,10273.42 13808.91,10309.78 13856.88,10325.10 14164.83,10422.93 14208.71,10436.52 14334.52,10474.77 14913.73,10653.88 15897.68,10965.83 16011.46,11000.09 16182.36,11042.89 16327.33,11075.46 16521.27,11119.05 16873.91,11180.73 16963.42,11193.46 17103.20,11213.36 17269.35,11227.89 17426.28,11242.16 17491.11,11246.35 17558.69,11250.64 17669.63,11253.82 17855.61,11256.00 18407.49,11254.12 18455.28,11254.15 18726.03,11251.37 18988.39,11248.63 19334.79,11246.99 19390.82,11246.73 19947.56,11242.12 20000.10,11241.78 20310.60,11242.45 20740.63,11236.82 21076.90,11232.34 21250.73,11232.01 21486.86,11229.97 21620.78,11228.78 21796.11,11227.51 21857.11,11227.05 22192.31,11224.60 22457.97,11219.24 22639.64,11211.63 22823.05,11197.81 23146.20,11158.05 23247.19,11142.01 23414.54,11112.13 23609.70,11070.48 23788.45,11026.06 23949.13,10981.15 24120.27,10927.92 24286.79,10870.65 24709.37,10699.92 25213.67,10471.97 25261.58,10450.01 25298.09,10433.26 25302.55,10431.21 25492.12,10344.26 25806.45,10197.98 26508.97,9877.74 27132.62,9598.40 27367.69,9507.86 27542.97,9448.53 27744.23,9387.59 27952.43,9331.52 28251.24,9266.22 28518.81,9219.87 28539.41,9217.07 28737.16,9198.27 28932.56,9179.42 29112.77,9169.91 29228.54,9165.03 29282.14,9163.14 29364.19,9162.30 30459.48,9190.71 30704.59,9195.82 31017.69,9204.41 31679.91,9222.90 31840.25,9225.84">
        <lane id="Route_0_0" index="0" allow="passenger truck motorcycle" speed="33.33" length="32703.26" width="3.75" shape="2.83,12220.09 167.67,12189.38 475.36,12110.80 576.32,12082.03 673.94,12056.05 908.21,11995.46 961.05,11981.80 1032.22,11964.01 1211.74,11914.55 1334.74,11873.67 1443.20,11840.65 1997.91,11676.75 2157.72,11629.11 2485.25,11532.45 2867.35,11419.97 2990.79,11382.38 3628.14,11194.48 4014.19,11080.82 5039.92,10779.69 5516.55,10638.35 5687.69,10588.81 6016.51,10490.04 6177.15,10442.24 6269.03,10416.08 6303.90,10405.00 6993.12,10210.67 7170.23,10168.77 7570.44,10083.73 7876.26,10030.36 8011.30,10005.38 8061.24,9999.28 8170.70,9985.93 8444.89,9958.47 8684.94,9940.46 9008.78,9924.11 9853.71,9893.20 9891.36,9891.61 9959.10,9889.14 10944.37,9851.03 11318.03,9837.17 11538.86,9840.51 11614.59,9842.66 11809.07,9849.02 11942.63,9859.18 12024.75,9867.30 12132.51,9879.55 12183.31,9886.09 12494.96,9934.84 12751.37,9990.78 12851.07,10013.25 13044.56,10064.62 13198.73,10110.59 13354.69,10159.62 13694.56,10268.06 13810.61,10304.42 13858.59,10319.74 14166.51,10417.56 14210.36,10431.14 14336.17,10469.39 14915.41,10648.51 15899.34,10960.46 16012.95,10994.67 16183.66,11037.42 16328.56,11069.97 16522.37,11113.53 16874.79,11175.17 16964.21,11187.89 17103.84,11207.77 17269.85,11222.29 17426.72,11236.55 17491.47,11240.74 17558.95,11245.02 17669.74,11248.20 17855.63,11250.37 18407.48,11248.49 18455.25,11248.52 18725.97,11245.75 18988.35,11243.01 19334.76,11241.37 19390.78,11241.11 19947.51,11236.50 20000.09,11236.15 20310.57,11236.82 20740.56,11231.20 21076.86,11226.72 21250.70,11226.39 21486.81,11224.35 21620.73,11223.16 21796.07,11221.89 21857.07,11221.43 22192.23,11218.98 22457.80,11213.62 22639.31,11206.01 22822.49,11192.21 23145.42,11152.48 23246.25,11136.46 23413.46,11106.61 23608.43,11065.00 23787.01,11020.62 23947.54,10975.75 24118.52,10922.57 24284.82,10865.38 24707.16,10694.75 25211.34,10466.85 25259.24,10444.90 25295.74,10428.15 25300.20,10426.10 25489.76,10339.15 25804.10,10192.87 26506.65,9872.61 27130.46,9593.20 27365.78,9502.57 27541.25,9443.17 27742.68,9382.18 27951.10,9326.05 28250.16,9260.70 28517.95,9214.31 28538.76,9211.48 28736.62,9192.67 28932.14,9173.81 29112.50,9164.29 29228.32,9159.41 29282.01,9157.52 29364.23,9156.67 30459.61,9185.09 30704.73,9190.20 31017.85,9198.79 31680.04,9217.28 31840.35,9220.22"/>
        <lane id="Route_0_1" index="1" allow="passenger truck motorcycle" speed="33.33" length="32703.26" width="3.75" shape="3.52,12223.78 168.48,12193.05 476.34,12114.42 577.31,12085.64 674.89,12059.68 909.15,11999.09 961.98,11985.43 1033.17,11967.64 1212.83,11918.14 1335.88,11877.24 1444.28,11844.24 1998.98,11680.34 2158.79,11632.70 2486.31,11536.05 2868.42,11423.56 2991.86,11385.97 3629.20,11198.08 4015.25,11084.42 5040.98,10783.29 5517.60,10641.95 5688.75,10592.41 6017.58,10493.63 6178.20,10445.84 6270.11,10419.67 6304.98,10408.59 6994.06,10214.30 7171.05,10172.43 7571.15,10087.41 7876.93,10034.05 8011.87,10009.09 8061.69,10003.00 8171.11,9989.66 8445.22,9962.20 8685.17,9944.20 9008.94,9927.86 9853.86,9896.95 9891.51,9895.36 9959.24,9892.89 10944.51,9854.78 11318.07,9840.92 11538.78,9844.26 11614.48,9846.41 11808.86,9852.77 11942.30,9862.91 12024.36,9871.03 12132.06,9883.27 12182.78,9889.80 12494.27,9938.53 12750.56,9994.44 12850.18,10016.89 13043.54,10068.23 13197.63,10114.18 13353.56,10163.19 13693.43,10271.63 13809.48,10307.99 13857.45,10323.31 14165.39,10421.14 14209.26,10434.73 14335.07,10472.98 14914.29,10652.09 15898.23,10964.04 16011.96,10998.28 16182.79,11041.07 16327.74,11073.63 16521.64,11117.21 16874.20,11178.88 16963.68,11191.60 17103.41,11211.50 17269.52,11226.02 17426.43,11240.29 17491.23,11244.48 17558.78,11248.77 17669.67,11251.95 17855.62,11254.12 18407.49,11252.24 18455.27,11252.27 18726.01,11249.50 18988.38,11246.76 19334.78,11245.12 19390.81,11244.86 19947.54,11240.25 20000.10,11239.90 20310.59,11240.57 20740.61,11234.95 21076.89,11230.47 21250.72,11230.14 21486.84,11228.10 21620.76,11226.91 21796.10,11225.64 21857.10,11225.18 22192.28,11222.73 22457.91,11217.37 22639.53,11209.76 22822.86,11195.94 23145.94,11156.19 23246.88,11140.16 23414.18,11110.29 23609.28,11068.65 23787.97,11024.25 23948.60,10979.35 24119.69,10926.14 24286.13,10868.89 24708.63,10698.20 25212.89,10470.26 25260.80,10448.31 25297.31,10431.56 25301.77,10429.51 25491.33,10342.56 25805.67,10196.28 26508.20,9876.03 27131.90,9596.67 27367.05,9506.10 27542.40,9446.74 27743.71,9385.79 27951.99,9329.70 28250.88,9264.38 28518.52,9218.02 28539.19,9215.21 28736.98,9196.40 28932.42,9177.55 29112.68,9168.04 29228.47,9163.16 29282.10,9161.27 29364.20,9160.42 30459.52,9188.84 30704.64,9193.95 31017.74,9202.54 31679.95,9221.03 31840.28,9223.97"/>
        <lane id="Route_0_2" index="2" allow="passenger" speed="33.33" length="32703.26" width="3.75" shape="4.20,12227.46 169.28,12196.71 477.32,12118.04 578.31,12089.26 675.85,12063.30 910.09,12002.73 962.90,11989.07 1034.13,11971.26 1213.93,11921.72 1337.02,11880.82 1445.36,11847.84 2000.04,11683.94 2159.85,11636.30 2487.37,11539.65 2869.50,11427.16 2992.94,11389.57 3630.26,11201.68 4016.31,11088.02 5042.04,10786.89 5518.66,10645.55 5689.81,10596.01 6018.66,10497.23 6179.24,10449.44 6271.19,10423.27 6306.06,10412.19 6995.00,10217.94 7171.87,10176.09 7571.87,10091.09 7877.59,10037.75 8012.43,10012.79 8062.15,10006.72 8171.53,9993.38 8445.54,9965.94 8685.41,9947.94 9009.10,9931.60 9854.00,9900.69 9891.65,9899.10 9959.38,9896.63 10944.65,9858.52 11318.11,9844.68 11538.70,9848.00 11614.36,9850.15 11808.66,9856.51 11941.98,9866.65 12023.96,9874.75 12131.60,9886.99 12182.26,9893.52 12493.57,9942.21 12749.74,9998.10 12849.28,10020.53 13042.52,10071.83 13196.53,10117.76 13352.42,10166.77 13692.29,10275.21 13808.34,10311.57 13856.31,10326.89 14164.27,10424.72 14208.16,10438.31 14333.97,10476.56 14913.17,10655.67 15897.13,10967.62 16010.96,11001.90 16181.93,11044.71 16326.92,11077.29 16520.90,11120.89 16873.62,11182.58 16963.16,11195.32 17102.99,11215.22 17269.18,11229.76 17426.13,11244.03 17490.99,11248.22 17558.60,11252.51 17669.59,11255.69 17855.60,11257.88 18407.49,11256.00 18455.29,11256.03 18726.05,11253.24 18988.40,11250.50 19334.80,11248.86 19390.83,11248.60 19947.58,11243.99 20000.10,11243.66 20310.61,11244.33 20740.65,11238.69 21076.91,11234.21 21250.74,11233.88 21486.88,11231.84 21620.80,11230.65 21796.12,11229.38 21857.12,11228.92 22192.34,11226.47 22458.03,11221.11 22639.75,11213.50 22823.24,11199.68 23146.46,11159.91 23247.50,11143.86 23414.90,11113.97 23610.12,11072.31 23788.93,11027.87 23949.66,10982.95 24120.85,10929.70 24287.45,10872.41 24710.11,10701.64 25214.45,10473.68 25262.36,10451.71 25298.87,10434.96 25303.33,10432.91 25492.91,10345.96 25807.23,10199.68 26509.74,9879.45 27133.34,9600.13 27368.33,9509.62 27543.54,9450.32 27744.75,9389.39 27952.87,9333.34 28251.60,9268.06 28519.10,9221.72 28539.63,9218.93 28737.34,9200.14 28932.70,9181.29 29112.86,9171.78 29228.61,9166.90 29282.18,9165.01 29364.18,9164.18 30459.44,9192.58 30704.54,9197.69 31017.64,9206.28 31679.87,9224.77 31840.22,9227.71"/>
        <lane id="Route_0_3" index="3" allow="passenger" speed="33.33" length="32703.26" width="3.75" shape="4.89,12231.15 170.09,12200.38 478.30,12121.66 579.30,12092.87 676.80,12066.93 911.03,12006.36 963.83,11992.70 1035.08,11974.89 1215.02,11925.31 1338.16,11884.39 1446.44,11851.43 2001.11,11687.53 2160.92,11639.89 2488.43,11543.25 2870.57,11430.75 2994.01,11393.16 3631.32,11205.28 4017.37,11091.62 5043.10,10790.49 5519.71,10649.15 5690.87,10599.61 6019.73,10500.82 6180.29,10453.04 6272.27,10426.86 6307.14,10415.78 6995.94,10221.57 7172.69,10179.75 7572.58,10094.77 7878.26,10041.44 8013.00,10016.50 8062.60,10010.44 8171.94,9997.11 8445.87,9969.67 8685.64,9951.68 9009.26,9935.35 9854.15,9904.44 9891.80,9902.85 9959.52,9900.38 10944.79,9862.27 11318.15,9848.43 11538.62,9851.75 11614.25,9853.90 11808.45,9860.26 11941.65,9870.38 12023.57,9878.48 12131.15,9890.71 12181.73,9897.23 12492.88,9945.90 12748.93,10001.76 12848.39,10024.17 13041.50,10075.44 13195.43,10121.35 13351.29,10170.34 13691.16,10278.78 13807.21,10315.14 13855.17,10330.46 14163.15,10428.30 14207.06,10441.90 14332.87,10480.15 14912.05,10659.25 15896.02,10971.20 16009.97,11005.51 16181.06,11048.36 16326.10,11080.95 16520.17,11124.57 16873.03,11186.29 16962.63,11199.03 17102.56,11218.95 17268.85,11233.49 17425.84,11247.77 17490.75,11251.96 17558.43,11256.26 17669.52,11259.44 17855.59,11261.63 18407.50,11259.75 18455.31,11259.78 18726.09,11256.99 18988.43,11254.25 19334.82,11252.61 19390.86,11252.35 19947.61,11247.74 20000.11,11247.41 20310.63,11248.08 20740.70,11242.44 21076.94,11237.96 21250.76,11237.63 21486.91,11235.59 21620.83,11234.40 21796.15,11233.13 21857.15,11232.67 22192.39,11230.22 22458.14,11224.86 22639.97,11217.25 22823.61,11203.41 23146.98,11163.62 23248.13,11147.56 23415.62,11117.65 23610.97,11075.96 23789.89,11031.50 23950.72,10986.55 24122.02,10933.27 24288.76,10875.92 24711.58,10705.09 25216.00,10477.09 25263.92,10455.12 25300.44,10438.37 25304.90,10436.32 25494.48,10349.37 25808.80,10203.09 26511.29,9882.87 27134.78,9603.60 27369.60,9513.15 27544.69,9453.89 27745.78,9393.00 27953.76,9336.99 28252.32,9271.74 28519.67,9225.43 28540.06,9222.66 28737.70,9203.87 28932.98,9185.03 29113.04,9175.53 29228.76,9170.65 29282.27,9168.76 29364.15,9167.93 30459.35,9196.33 30704.45,9201.44 31017.53,9210.03 31679.78,9228.52 31840.15,9231.46"/>
        <param key="ref" value="G30"/>
    </edge>
    <edge id="Route_0_L" from="Jun_0_L" to="Jun_1_L" priority="14" type="highway.motorway" spreadType="center" shape="31841.55,9241.66 31678.87,9238.60 31497.21,9233.69 31310.39,9228.23 31024.99,9219.98 30698.69,9216.35 30454.72,9208.99 29360.73,9181.34 29269.43,9180.67 29230.88,9181.40 29079.15,9188.61 28888.71,9200.63 28741.45,9213.57 28541.43,9235.41 28520.43,9238.23 28258.14,9280.63 27988.11,9339.64 27715.10,9412.46 27547.43,9463.76 27372.04,9523.09 27135.30,9614.87 26994.25,9677.20 26800.26,9764.23 26507.50,9895.50 26269.93,10003.73 26140.24,10063.86 25495.42,10359.87 25323.73,10441.79 25288.96,10457.39 25005.62,10583.09 24714.55,10714.94 24667.60,10733.97 24288.03,10887.24 24124.62,10943.03 24057.40,10964.09 23953.21,10996.23 23850.09,11024.91 23790.72,11041.66 23722.71,11058.35 23613.52,11085.81 23568.43,11095.33 23418.29,11127.11 23268.43,11154.49 23146.06,11173.66 23030.75,11188.49 22825.28,11214.09 22642.91,11232.72 22436.76,11244.93 22192.52,11245.87 21976.80,11248.44 21801.49,11249.36 21694.09,11249.75 21476.44,11250.56 21261.07,11251.37 21079.49,11253.97 20749.81,11256.30 20320.25,11260.59 20006.29,11262.34 19953.08,11261.85 19857.78,11263.26 19396.35,11266.98 18991.42,11270.27 18881.90,11273.29 18466.34,11272.93 18450.75,11273.13 18408.62,11273.81 17835.16,11275.82 17665.68,11273.53 17554.38,11268.40 17490.08,11265.37 17425.41,11260.90 17277.54,11249.11 17238.18,11245.98 17100.32,11231.40 16872.52,11201.94 16599.03,11153.99 16489.39,11134.77 16280.07,11089.38 16045.21,11029.27 15892.40,10985.37 14874.85,10667.07 14334.90,10497.66 14194.56,10452.88 14030.17,10401.23 13850.53,10342.81 13801.25,10326.74 13759.82,10314.41 13581.66,10258.16 13522.06,10239.35 13349.14,10184.76 13187.58,10133.68 13040.16,10087.30 12845.63,10034.33 12748.92,10013.01 12505.96,9958.69 12235.77,9916.39 12130.90,9900.93 12053.61,9891.78 11965.31,9882.86 11917.51,9878.39 11587.18,9862.84 11537.52,9861.89 11530.18,9861.76 11306.91,9859.33 10941.40,9872.44 9961.73,9909.90 9887.95,9912.78 9843.04,9914.81 9713.65,9919.65 9482.07,9927.89 9001.39,9946.23 8801.20,9955.65 8644.44,9964.54 8436.06,9980.53 8222.23,10003.99 8007.96,10029.77 7996.45,10031.97 7871.74,10058.73 7571.02,10108.51 7173.48,10192.36 6999.00,10234.70 6310.32,10429.90 6275.14,10441.08 6025.94,10514.56 5868.78,10561.37 5570.89,10648.33 5532.46,10660.88 5471.43,10679.24 5054.33,10798.43 4908.43,10840.45 4745.73,10888.23 4605.70,10930.58 4480.37,10966.42 4207.36,11046.92 4028.74,11099.05 3637.68,11214.15 3541.31,11242.82 2993.73,11403.54 2839.39,11450.10 2589.81,11523.86 2410.32,11576.72 2151.17,11653.56 2000.14,11698.74 1446.38,11867.46 1429.93,11872.48 1352.85,11899.14 1215.39,11940.52 873.56,12033.30 703.67,12080.59 584.77,12116.13 484.17,12144.67 175.66,12221.63 10.44,12256.24">
        <lane id="Route_0_L_0" index="0" allow="passenger truck motorcycle" speed="27.78" length="32703.02" width="3.75" shape="31841.44,9247.28 31678.74,9244.22 31497.05,9239.31 31310.23,9233.85 31024.88,9225.60 30698.57,9221.97 30454.56,9214.61 29360.64,9186.96 29269.46,9186.30 29231.07,9187.02 29079.46,9194.23 28889.13,9206.24 28742.00,9219.17 28542.11,9240.99 28521.25,9243.79 28259.19,9286.16 27989.44,9345.11 27716.65,9417.87 27549.15,9469.11 27373.96,9528.38 27137.45,9620.07 26996.54,9682.34 26802.56,9769.36 26509.82,9900.63 26272.28,10008.84 26142.60,10068.97 25497.80,10364.96 25326.09,10446.90 25291.25,10462.53 25007.92,10588.22 24716.77,10720.11 24669.71,10739.18 24289.99,10892.51 24126.37,10948.38 24059.07,10969.46 23954.79,11001.63 23851.61,11030.33 23792.15,11047.10 23724.07,11063.81 23614.79,11091.29 23569.59,11100.83 23419.38,11132.63 23269.37,11160.04 23146.85,11179.23 23031.46,11194.07 22825.91,11219.68 22643.36,11238.33 22436.94,11250.55 22192.56,11251.49 21976.85,11254.06 21801.51,11254.98 21694.11,11255.37 21476.46,11256.18 21261.12,11256.99 21079.55,11259.59 20749.86,11261.92 20320.29,11266.21 20006.28,11267.97 19953.10,11267.48 19857.84,11268.88 19396.40,11272.60 18991.52,11275.89 18881.98,11278.92 18466.37,11278.56 18450.83,11278.75 18408.68,11279.43 17835.13,11281.45 17665.51,11279.15 17554.12,11274.02 17489.75,11270.99 17424.99,11266.51 17277.09,11254.72 17237.66,11251.58 17099.66,11236.99 16871.67,11207.50 16598.06,11159.53 16488.31,11140.29 16278.78,11094.86 16043.74,11034.70 15890.78,10990.76 14873.17,10672.44 14333.20,10503.02 14192.86,10458.24 14028.46,10406.59 13848.79,10348.16 13799.58,10332.11 13758.17,10319.79 13579.97,10263.52 13520.37,10244.71 13347.45,10190.12 13185.89,10139.04 13038.58,10092.70 12844.28,10039.79 12747.70,10018.50 12504.91,9964.22 12234.92,9921.95 12130.16,9906.51 12053.00,9897.37 11964.77,9888.46 11917.12,9884.00 11586.99,9868.46 11537.41,9867.51 11530.10,9867.38 11306.98,9864.96 10941.61,9878.06 9961.95,9915.52 9888.19,9918.40 9843.27,9920.43 9713.86,9925.27 9482.28,9933.51 9001.63,9951.85 8801.49,9961.27 8644.81,9970.15 8436.58,9986.13 8222.87,10009.58 8008.83,10035.33 7997.57,10037.48 7872.79,10064.26 7572.06,10114.04 7174.72,10197.85 7000.43,10240.14 6311.94,10435.29 6276.79,10446.46 6027.54,10519.95 5870.37,10566.77 5572.55,10653.70 5534.14,10666.25 5473.01,10684.64 5055.88,10803.84 4910.00,10845.85 4747.34,10893.62 4607.29,10935.98 4481.94,10971.82 4208.94,11052.32 4030.32,11104.45 3639.28,11219.54 3542.90,11248.21 2995.33,11408.93 2841.00,11455.49 2591.40,11529.26 2411.91,11582.11 2152.78,11658.95 2001.77,11704.12 1448.02,11872.84 1431.67,11877.83 1354.58,11904.49 1216.94,11945.93 875.05,12038.72 705.23,12085.99 586.34,12121.53 485.62,12150.11 176.92,12227.11 11.59,12261.75"/>
        <lane id="Route_0_L_1" index="1" allow="passenger truck motorcycle" speed="27.78" length="32703.02" width="3.75" shape="31841.51,9243.53 31678.83,9240.47 31497.16,9235.56 31310.34,9230.10 31024.95,9221.85 30698.65,9218.22 30454.67,9210.86 29360.70,9183.21 29269.44,9182.55 29230.94,9183.27 29079.25,9190.48 28888.85,9202.50 28741.63,9215.44 28541.66,9237.27 28520.70,9240.08 28258.49,9282.47 27988.55,9341.46 27715.62,9414.26 27548.00,9465.54 27372.68,9524.85 27136.02,9616.60 26995.01,9678.91 26801.03,9765.94 26508.27,9897.21 26270.71,10005.43 26141.03,10065.56 25496.21,10361.57 25324.52,10443.49 25289.72,10459.10 25006.39,10584.80 24715.29,10716.66 24668.30,10735.71 24288.68,10889.00 24125.20,10944.81 24057.96,10965.88 23953.74,10998.03 23850.60,11026.72 23791.20,11043.47 23723.16,11060.17 23613.94,11087.64 23568.82,11097.16 23418.65,11128.95 23268.74,11156.34 23146.32,11175.52 23030.99,11190.35 22825.49,11215.95 22643.06,11234.59 22436.82,11246.80 22192.53,11247.74 21976.82,11250.31 21801.50,11251.23 21694.10,11251.62 21476.45,11252.43 21261.09,11253.24 21079.51,11255.84 20749.83,11258.17 20320.26,11262.46 20006.29,11264.22 19953.09,11263.73 19857.80,11265.13 19396.37,11268.85 18991.45,11272.14 18881.93,11275.17 18466.35,11274.81 18450.78,11275.00 18408.64,11275.68 17835.15,11277.70 17665.62,11275.40 17554.29,11270.27 17489.97,11267.24 17425.27,11262.77 17277.39,11250.98 17238.01,11247.85 17100.10,11233.26 16872.24,11203.79 16598.71,11155.84 16489.03,11136.61 16279.64,11091.21 16044.72,11031.08 15891.86,10987.17 14874.29,10668.86 14334.33,10499.45 14193.99,10454.67 14029.60,10403.02 13849.95,10344.59 13800.69,10328.53 13759.27,10316.20 13581.10,10259.95 13521.50,10241.14 13348.58,10186.55 13187.02,10135.47 13039.63,10089.10 12845.18,10036.15 12748.51,10014.84 12505.61,9960.53 12235.49,9918.24 12130.65,9902.79 12053.41,9893.64 11965.13,9884.73 11917.38,9880.26 11587.12,9864.71 11537.48,9863.76 11530.15,9863.63 11306.93,9861.21 10941.47,9874.31 9961.80,9911.77 9888.03,9914.65 9843.12,9916.68 9713.72,9921.52 9482.14,9929.76 9001.47,9948.10 8801.30,9957.52 8644.56,9966.41 8436.23,9982.40 8222.44,10005.85 8008.25,10031.62 7996.82,10033.81 7872.09,10060.57 7571.37,10110.35 7173.89,10194.19 6999.48,10236.51 6310.86,10431.70 6275.69,10442.87 6026.47,10516.36 5869.31,10563.17 5571.44,10650.12 5533.02,10662.67 5471.96,10681.04 5054.85,10800.23 4908.95,10842.25 4746.27,10890.03 4606.23,10932.38 4480.89,10968.22 4207.89,11048.72 4029.27,11100.85 3638.21,11215.95 3541.84,11244.62 2994.26,11405.34 2839.93,11451.90 2590.34,11525.66 2410.85,11578.52 2151.71,11655.36 2000.68,11700.53 1446.93,11869.25 1430.51,11874.26 1353.43,11900.92 1215.91,11942.32 874.06,12035.11 704.19,12082.39 585.29,12117.93 484.65,12146.48 176.08,12223.46 10.82,12258.08"/>
        <lane id="Route_0_L_2" index="2" allow="passenger" speed="33.33" length="32703.02" width="3.75" shape="31841.59,9239.79 31678.91,9236.73 31497.26,9231.82 31310.44,9226.36 31025.03,9218.11 30698.73,9214.48 30454.77,9207.12 29360.76,9179.47 29269.42,9178.79 29230.82,9179.53 29079.05,9186.74 28888.57,9198.76 28741.27,9211.70 28541.20,9233.55 28520.16,9236.38 28257.79,9278.79 27987.67,9337.82 27714.58,9410.66 27546.86,9461.98 27371.40,9521.33 27134.58,9613.14 26993.49,9675.49 26799.49,9762.52 26506.73,9893.79 26269.15,10002.03 26139.45,10062.16 25494.63,10358.17 25322.94,10440.09 25288.20,10455.68 25004.85,10581.38 24713.81,10713.22 24666.90,10732.23 24287.38,10885.48 24124.04,10941.25 24056.84,10962.30 23952.68,10994.43 23849.58,11023.10 23790.24,11039.85 23722.26,11056.53 23613.10,11083.98 23568.04,11093.50 23417.93,11125.27 23268.12,11152.64 23145.80,11171.80 23030.51,11186.63 22825.07,11212.23 22642.76,11230.85 22436.70,11243.06 22192.51,11244.00 21976.78,11246.57 21801.48,11247.49 21694.08,11247.88 21476.43,11248.69 21261.05,11249.50 21079.47,11252.10 20749.79,11254.43 20320.24,11258.72 20006.29,11260.46 19953.07,11259.97 19857.76,11261.39 19396.33,11265.11 18991.39,11268.40 18881.87,11271.41 18466.33,11271.05 18450.72,11271.26 18408.60,11271.94 17835.17,11273.94 17665.74,11271.66 17554.47,11266.53 17490.19,11263.50 17425.55,11259.03 17277.69,11247.24 17238.35,11244.11 17100.54,11229.54 16872.80,11200.09 16599.35,11152.14 16489.75,11132.93 16280.50,11087.55 16045.70,11027.46 15892.94,10983.57 14875.41,10665.28 14335.47,10495.87 14195.13,10451.09 14030.74,10399.44 13851.11,10341.03 13801.81,10324.95 13760.37,10312.62 13582.22,10256.37 13522.62,10237.56 13349.70,10182.97 13188.14,10131.89 13040.69,10085.50 12846.08,10032.51 12749.33,10011.18 12506.31,9956.85 12236.05,9914.54 12131.15,9899.07 12053.81,9889.92 11965.49,9880.99 11917.64,9876.52 11587.24,9860.97 11537.56,9860.02 11530.21,9859.89 11306.89,9857.45 10941.33,9870.57 9961.66,9908.03 9887.87,9910.91 9842.96,9912.94 9713.58,9917.78 9482.00,9926.02 9001.31,9944.36 8801.10,9953.78 8644.32,9962.67 8435.89,9978.66 8222.02,10002.13 8007.67,10027.92 7996.08,10030.13 7871.39,10056.89 7570.67,10106.67 7173.07,10190.53 6998.52,10232.89 6309.78,10428.10 6274.59,10439.29 6025.41,10512.76 5868.25,10559.57 5570.34,10646.54 5531.90,10659.09 5470.90,10677.44 5053.81,10796.63 4907.91,10838.65 4745.19,10886.43 4605.17,10928.78 4479.85,10964.62 4206.83,11045.12 4028.21,11097.25 3637.15,11212.35 3540.78,11241.02 2993.20,11401.74 2838.85,11448.30 2589.28,11522.06 2409.79,11574.92 2150.63,11651.76 1999.60,11696.95 1445.83,11865.67 1429.35,11870.70 1352.27,11897.36 1214.87,11938.72 873.06,12031.49 703.15,12078.79 584.25,12114.33 483.69,12142.86 175.24,12219.80 10.06,12254.40"/>
        <lane id="Route_0_L_3" index="3" allow="passenger" speed="33.33" length="32703.02" width="3.75" shape="31841.66,9236.04 31679.00,9232.98 31497.37,9228.07 31310.55,9222.61 31025.10,9214.36 30698.81,9210.73 30454.88,9203.37 29360.82,9175.72 29269.40,9175.04 29230.69,9175.78 29078.84,9182.99 28888.29,9195.02 28740.90,9207.97 28540.75,9229.83 28519.61,9232.67 28257.09,9275.10 27986.78,9334.17 27713.55,9407.05 27545.71,9458.41 27370.12,9517.80 27133.15,9609.67 26991.96,9672.06 26797.96,9759.10 26505.18,9890.37 26267.58,9998.62 26137.88,10058.75 25493.04,10354.78 25321.37,10436.68 25286.67,10452.25 25003.32,10577.96 24712.33,10709.77 24665.49,10728.76 24286.07,10881.97 24122.87,10937.68 24055.73,10958.72 23951.63,10990.83 23848.57,11019.49 23789.29,11036.22 23721.35,11052.89 23612.25,11080.33 23567.27,11089.83 23417.20,11121.59 23267.49,11148.94 23145.27,11168.09 23030.04,11182.91 22824.65,11208.50 22642.46,11227.11 22436.58,11239.31 22192.48,11240.25 21976.75,11242.82 21801.47,11243.74 21694.07,11244.13 21476.42,11244.94 21261.02,11245.75 21079.43,11248.35 20749.76,11250.68 20320.21,11254.97 20006.30,11256.71 19953.06,11256.22 19857.72,11257.64 19396.30,11261.36 18991.32,11264.65 18881.82,11267.66 18466.31,11267.30 18450.67,11267.51 18408.56,11268.19 17835.19,11270.19 17665.85,11267.91 17554.64,11262.78 17490.41,11259.75 17425.83,11255.29 17277.99,11243.50 17238.70,11240.38 17100.98,11225.81 16873.37,11196.38 16600.00,11148.45 16490.47,11129.25 16281.36,11083.90 16046.68,11023.84 15894.02,10979.98 14876.53,10661.70 14336.60,10492.30 14196.26,10447.52 14031.88,10395.87 13852.27,10337.46 13802.92,10321.37 13761.47,10309.03 13583.35,10252.80 13523.75,10233.99 13350.83,10179.40 13189.27,10128.32 13041.74,10081.90 12846.98,10028.87 12750.14,10007.52 12507.01,9953.16 12236.62,9910.83 12131.64,9895.35 12054.22,9886.19 11965.85,9877.26 11917.90,9872.78 11587.37,9857.22 11537.63,9856.27 11530.26,9856.14 11306.84,9853.70 10941.19,9866.82 9961.51,9904.28 9887.71,9907.16 9842.81,9909.19 9713.44,9914.03 9481.86,9922.27 9001.15,9940.61 8800.91,9950.03 8644.07,9958.93 8435.54,9974.93 8221.59,9998.40 8007.09,10024.21 7995.33,10026.46 7870.69,10053.20 7569.98,10102.98 7172.24,10186.87 6997.57,10229.26 6308.70,10424.51 6273.49,10435.70 6024.34,10509.17 5867.19,10555.97 5569.23,10642.96 5530.78,10655.51 5469.85,10673.84 5052.78,10793.02 4906.86,10835.05 4744.12,10882.84 4604.11,10925.18 4478.80,10961.02 4205.78,11041.52 4027.16,11093.65 3636.08,11208.76 3539.72,11237.43 2992.13,11398.15 2837.78,11444.71 2588.22,11518.46 2408.73,11571.33 2149.56,11648.17 1998.51,11693.36 1444.74,11862.08 1428.19,11867.13 1351.12,11893.79 1213.84,11935.11 872.07,12027.88 702.11,12075.19 583.20,12110.73 482.72,12139.23 174.40,12216.15 9.29,12250.73"/>
        <param key="ref" value="G30"/>
    </edge>

    <junction id="Jun_0" type="dead_end" x="3.86" y="12225.62" incLanes="" intLanes="" shape="5.23,12232.99 2.49,12218.25"/>
    <junction id="Jun_0_L" type="dead_end" x="31841.55" y="9241.66" incLanes="" intLanes="" shape="31841.69,9234.16 31841.41,9249.16"/>
    <junction id="Jun_1" type="dead_end" x="31840.25" y="9225.84" incLanes="Route_0_0 Route_0_1 Route_0_2 Route_0_3" intLanes="" shape="31840.39,9218.34 31840.11,9233.34"/>
    <junction id="Jun_1_L" type="dead_end" x="10.44" y="12256.24" incLanes="Route_0_L_0 Route_0_L_1 Route_0_L_2 Route_0_L_3" intLanes="" shape="11.98,12263.58 8.90,12248.90"/>

</net>
