<?xml version="1.0" encoding="UTF-8"?>

<!-- generated on 08/21/20 23:37:10 by Eclipse SUMO netedit Version 1.6.0
<configuration xmlns:xsi="http://www.w3.org/2001/XMLSchema-instance" xsi:noNamespaceSchemaLocation="http://sumo.dlr.de/xsd/netconvertConfiguration.xsd">

    <input>
        <sumo-net-file value="D:\PI_DSAC\PI_dsac_20200818\LasVSim\Map\Map3_G30\simu\G30_zhengzhou.net.xml"/>
    </input>

    <output>
        <output-file value="D:\PI_DSAC\PI_dsac_20200818\LasVSim\Map\Map3_G30\simu\G30_zhengzhou.net.xml"/>
    </output>

    <processing>
        <geometry.min-radius.fix.railways value="false"/>
        <geometry.max-grade.fix value="false"/>
        <offset.disable-normalization value="true"/>
        <lefthand value="false"/>
    </processing>

    <junctions>
        <no-internal-links value="true"/>
        <no-turnarounds value="true"/>
        <junctions.corner-detail value="5"/>
        <junctions.limit-turn-speed value="5.5"/>
        <rectangular-lane-cut value="false"/>
    </junctions>

    <pedestrian>
        <walkingareas value="false"/>
    </pedestrian>

    <report>
        <aggregate-warnings value="5"/>
    </report>

</configuration>
-->

<net version="1.6" junctionCornerDetail="5" limitTurnSpeed="5.50" xmlns:xsi="http://www.w3.org/2001/XMLSchema-instance" xsi:noNamespaceSchemaLocation="http://sumo.dlr.de/xsd/net_file.xsd">

    <location netOffset="-724429.34,-3848163.32" convBoundary="3.86,9162.30,31840.25,12225.62" origBoundary="113.393970,34.656390,114.000851,35.231672" projParameter="+proj=utm +zone=49 +ellps=WGS84 +datum=WGS84 +units=m +no_defs"/>

    <edge id="Route_0" from="Jun_0" to="Jun_1" priority="14" type="highway.motorway" spreadType="center" shape="3.86,12225.62 168.88,12194.88 476.83,12116.23 577.81,12087.45 675.37,12061.49 909.62,12000.91 962.44,11987.25 1033.65,11969.45 1213.38,11919.93 1336.45,11879.03 1444.82,11846.04 1999.51,11682.14 2159.32,11634.50 2486.84,11537.85 2868.96,11425.36 2992.40,11387.77 3629.73,11199.88 4015.78,11086.22 5041.51,10785.09 5518.13,10643.75 5689.28,10594.21 6018.12,10495.43 6178.72,10447.64 6270.65,10421.47 6305.52,10410.39 6994.53,10216.12 7171.46,10174.26 7571.51,10089.25 7877.26,10035.90 8012.15,10010.94 8061.92,10004.86 8171.32,9991.52 8445.38,9964.07 8685.29,9946.07 9009.02,9929.73 9853.93,9898.82 9891.58,9897.23 9959.31,9894.76 10944.58,9856.65 11318.09,9842.80 11538.74,9846.13 11614.42,9848.28 11808.76,9854.64 11942.14,9864.78 12024.16,9872.89 12131.83,9885.13 12182.52,9891.66 12493.92,9940.37 12750.15,9996.27 12849.73,10018.71 13043.03,10070.03 13197.08,10115.97 13352.99,10164.98 13692.86,10273.42 13808.91,10309.78 13856.88,10325.10 14164.83,10422.93 14208.71,10436.52 14334.52,10474.77 14913.73,10653.88 15897.68,10965.83 16011.46,11000.09 16182.36,11042.89 16327.33,11075.46 16521.27,11119.05 16873.91,11180.73 16963.42,11193.46 17103.20,11213.36 17269.35,11227.89 17426.28,11242.16 17491.11,11246.35 17558.69,11250.64 17669.63,11253.82 17855.61,11256.00 18407.49,11254.12 18455.28,11254.15 18726.03,11251.37 18988.39,11248.63 19334.79,11246.99 19390.82,11246.73 19947.56,11242.12 20000.10,11241.78 20310.60,11242.45 20740.63,11236.82 21076.90,11232.34 21250.73,11232.01 21486.86,11229.97 21620.78,11228.78 21796.11,11227.51 21857.11,11227.05 22192.31,11224.60 22457.97,11219.24 22639.64,11211.63 22823.05,11197.81 23146.20,11158.05 23247.19,11142.01 23414.54,11112.13 23609.70,11070.48 23788.45,11026.06 23949.13,10981.15 24120.27,10927.92 24286.79,10870.65 24709.37,10699.92 25213.67,10471.97 25261.58,10450.01 25298.09,10433.26 25302.55,10431.21 25492.12,10344.26 25806.45,10197.98 26508.97,9877.74 27132.62,9598.40 27367.69,9507.86 27542.97,9448.53 27744.23,9387.59 27952.43,9331.52 28251.24,9266.22 28518.81,9219.87 28539.41,9217.07 28737.16,9198.27 28932.56,9179.42 29112.77,9169.91 29228.54,9165.03 29282.14,9163.14 29364.19,9162.30 30459.48,9190.71 30704.59,9195.82 31017.69,9204.41 31679.91,9222.90 31840.25,9225.84">
        <lane id="Route_0_0" index="0" allow="passenger truck motorcycle" speed="33.33" length="32703.26" width="3.75" shape="2.83,12220.09 167.67,12189.38 475.36,12110.80 576.32,12082.03 673.94,12056.05 908.21,11995.46 961.05,11981.80 1032.22,11964.01 1211.74,11914.55 1334.74,11873.67 1443.20,11840.65 1997.91,11676.75 2157.72,11629.11 2485.25,11532.45 2867.35,11419.97 2990.79,11382.38 3628.14,11194.48 4014.19,11080.82 5039.92,10779.69 5516.55,10638.35 5687.69,10588.81 6016.51,10490.04 6177.15,10442.24 6269.03,10416.08 6303.90,10405.00 6993.12,10210.67 7170.23,10168.77 7570.44,10083.73 7876.26,10030.36 8011.30,10005.38 8061.24,9999.28 8170.70,9985.93 8444.89,9958.47 8684.94,9940.46 9008.78,9924.11 9853.71,9893.20 9891.36,9891.61 9959.10,9889.14 10944.37,9851.03 11318.03,9837.17 11538.86,9840.51 11614.59,9842.66 11809.07,9849.02 11942.63,9859.18 12024.75,9867.30 12132.51,9879.55 12183.31,9886.09 12494.96,9934.84 12751.37,9990.78 12851.07,10013.25 13044.56,10064.62 13198.73,10110.59 13354.69,10159.62 13694.56,10268.06 13810.61,10304.42 13858.59,10319.74 14166.51,10417.56 14210.36,10431.14 14336.17,10469.39 14915.41,10648.51 15899.34,10960.46 16012.95,10994.67 16183.66,11037.42 16328.56,11069.97 16522.37,11113.53 16874.79,11175.17 16964.21,11187.89 17103.84,11207.77 17269.85,11222.29 17426.72,11236.55 17491.47,11240.74 17558.95,11245.02 17669.74,11248.20 17855.63,11250.37 18407.48,11248.49 18455.25,11248.52 18725.97,11245.75 18988.35,11243.01 19334.76,11241.37 19390.78,11241.11 19947.51,11236.50 20000.09,11236.15 20310.57,11236.82 20740.56,11231.20 21076.86,11226.72 21250.70,11226.39 21486.81,11224.35 21620.73,11223.16 21796.07,11221.89 21857.07,11221.43 22192.23,11218.98 22457.80,11213.62 22639.31,11206.01 22822.49,11192.21 23145.42,11152.48 23246.25,11136.46 23413.46,11106.61 23608.43,11065.00 23787.01,11020.62 23947.54,10975.75 24118.52,10922.57 24284.82,10865.38 24707.16,10694.75 25211.34,10466.85 25259.24,10444.90 25295.74,10428.15 25300.20,10426.10 25489.76,10339.15 25804.10,10192.87 26506.65,9872.61 27130.46,9593.20 27365.78,9502.57 27541.25,9443.17 27742.68,9382.18 27951.10,9326.05 28250.16,9260.70 28517.95,9214.31 28538.76,9211.48 28736.62,9192.67 28932.14,9173.81 29112.50,9164.29 29228.32,9159.41 29282.01,9157.52 29364.23,9156.67 30459.61,9185.09 30704.73,9190.20 31017.85,9198.79 31680.04,9217.28 31840.35,9220.22"/>
        <lane id="Route_0_1" index="1" allow="passenger truck motorcycle" speed="33.33" length="32703.26" width="3.75" shape="3.52,12223.78 168.48,12193.05 476.34,12114.42 577.31,12085.64 674.89,12059.68 909.15,11999.09 961.98,11985.43 1033.17,11967.64 1212.83,11918.14 1335.88,11877.24 1444.28,11844.24 1998.98,11680.34 2158.79,11632.70 2486.31,11536.05 2868.42,11423.56 2991.86,11385.97 3629.20,11198.08 4015.25,11084.42 5040.98,10783.29 5517.60,10641.95 5688.75,10592.41 6017.58,10493.63 6178.20,10445.84 6270.11,10419.67 6304.98,10408.59 6994.06,10214.30 7171.05,10172.43 7571.15,10087.41 7876.93,10034.05 8011.87,10009.09 8061.69,10003.00 8171.11,9989.66 8445.22,9962.20 8685.17,9944.20 9008.94,9927.86 9853.86,9896.95 9891.51,9895.36 9959.24,9892.89 10944.51,9854.78 11318.07,9840.92 11538.78,9844.26 11614.48,9846.41 11808.86,9852.77 11942.30,9862.91 12024.36,9871.03 12132.06,9883.27 12182.78,9889.80 12494.27,9938.53 12750.56,9994.44 12850.18,10016.89 13043.54,10068.23 13197.63,10114.18 13353.56,10163.19 13693.43,10271.63 13809.48,10307.99 13857.45,10323.31 14165.39,10421.14 14209.26,10434.73 14335.07,10472.98 14914.29,10652.09 15898.23,10964.04 16011.96,10998.28 16182.79,11041.07 16327.74,11073.63 16521.64,11117.21 16874.20,11178.88 16963.68,11191.60 17103.41,11211.50 17269.52,11226.02 17426.43,11240.29 17491.23,11244.48 17558.78,11248.77 17669.67,11251.95 17855.62,11254.12 18407.49,11252.24 18455.27,11252.27 18726.01,11249.50 18988.38,11246.76 19334.78,11245.12 19390.81,11244.86 19947.54,11240.25 20000.10,11239.90 20310.59,11240.57 20740.61,11234.95 21076.89,11230.47 21250.72,11230.14 21486.84,11228.10 21620.76,11226.91 21796.10,11225.64 21857.10,11225.18 22192.28,11222.73 22457.91,11217.37 22639.53,11209.76 22822.86,11195.94 23145.94,11156.19 23246.88,11140.16 23414.18,11110.29 23609.28,11068.65 23787.97,11024.25 23948.60,10979.35 24119.69,10926.14 24286.13,10868.89 24708.63,10698.20 25212.89,10470.26 25260.80,10448.31 25297.31,10431.56 25301.77,10429.51 25491.33,10342.56 25805.67,10196.28 26508.20,9876.03 27131.90,9596.67 27367.05,9506.10 27542.40,9446.74 27743.71,9385.79 27951.99,9329.70 28250.88,9264.38 28518.52,9218.02 28539.19,9215.21 28736.98,9196.40 28932.42,9177.55 29112.68,9168.04 29228.47,9163.16 29282.10,9161.27 29364.20,9160.42 30459.52,9188.84 30704.64,9193.95 31017.74,9202.54 31679.95,9221.03 31840.28,9223.97"/>
        <lane id="Route_0_2" index="2" allow="passenger" speed="33.33" length="32703.26" width="3.75" shape="4.20,12227.46 169.28,12196.71 477.32,12118.04 578.31,12089.26 675.85,12063.30 910.09,12002.73 962.90,11989.07 1034.13,11971.26 1213.93,11921.72 1337.02,11880.82 1445.36,11847.84 2000.04,11683.94 2159.85,11636.30 2487.37,11539.65 2869.50,11427.16 2992.94,11389.57 3630.26,11201.68 4016.31,11088.02 5042.04,10786.89 5518.66,10645.55 5689.81,10596.01 6018.66,10497.23 6179.24,10449.44 6271.19,10423.27 6306.06,10412.19 6995.00,10217.94 7171.87,10176.09 7571.87,10091.09 7877.59,10037.75 8012.43,10012.79 8062.15,10006.72 8171.53,9993.38 8445.54,9965.94 8685.41,9947.94 9009.10,9931.60 9854.00,9900.69 9891.65,9899.10 9959.38,9896.63 10944.65,9858.52 11318.11,9844.68 11538.70,9848.00 11614.36,9850.15 11808.66,9856.51 11941.98,9866.65 12023.96,9874.75 12131.60,9886.99 12182.26,9893.52 12493.57,9942.21 12749.74,9998.10 12849.28,10020.53 13042.52,10071.83 13196.53,10117.76 13352.42,10166.77 13692.29,10275.21 13808.34,10311.57 13856.31,10326.89 14164.27,10424.72 14208.16,10438.31 14333.97,10476.56 14913.17,10655.67 15897.13,10967.62 16010.96,11001.90 16181.93,11044.71 16326.92,11077.29 16520.90,11120.89 16873.62,11182.58 16963.16,11195.32 17102.99,11215.22 17269.18,11229.76 17426.13,11244.03 17490.99,11248.22 17558.60,11252.51 17669.59,11255.69 17855.60,11257.88 18407.49,11256.00 18455.29,11256.03 18726.05,11253.24 18988.40,11250.50 19334.80,11248.86 19390.83,11248.60 19947.58,11243.99 20000.10,11243.66 20310.61,11244.33 20740.65,11238.69 21076.91,11234.21 21250.74,11233.88 21486.88,11231.84 21620.80,11230.65 21796.12,11229.38 21857.12,11228.92 22192.34,11226.47 22458.03,11221.11 22639.75,11213.50 22823.24,11199.68 23146.46,11159.91 23247.50,11143.86 23414.90,11113.97 23610.12,11072.31 23788.93,11027.87 23949.66,10982.95 24120.85,10929.70 24287.45,10872.41 24710.11,10701.64 25214.45,10473.68 25262.36,10451.71 25298.87,10434.96 25303.33,10432.91 25492.91,10345.96 25807.23,10199.68 26509.74,9879.45 27133.34,9600.13 27368.33,9509.62 27543.54,9450.32 27744.75,9389.39 27952.87,9333.34 28251.60,9268.06 28519.10,9221.72 28539.63,9218.93 28737.34,9200.14 28932.70,9181.29 29112.86,9171.78 29228.61,9166.90 29282.18,9165.01 29364.18,9164.18 30459.44,9192.58 30704.54,9197.69 31017.64,9206.28 31679.87,9224.77 31840.22,9227.71"/>
        <lane id="Route_0_3" index="3" allow="passenger" speed="33.33" length="32703.26" width="3.75" shape="4.89,12231.15 170.09,12200.38 478.30,12121.66 579.30,12092.87 676.80,12066.93 911.03,12006.36 963.83,11992.70 1035.08,11974.89 1215.02,11925.31 1338.16,11884.39 1446.44,11851.43 2001.11,11687.53 2160.92,11639.89 2488.43,11543.25 2870.57,11430.75 2994.01,11393.16 3631.32,11205.28 4017.37,11091.62 5043.10,10790.49 5519.71,10649.15 5690.87,10599.61 6019.73,10500.82 6180.29,10453.04 6272.27,10426.86 6307.14,10415.78 6995.94,10221.57 7172.69,10179.75 7572.58,10094.77 7878.26,10041.44 8013.00,10016.50 8062.60,10010.44 8171.94,9997.11 8445.87,9969.67 8685.64,9951.68 9009.26,9935.35 9854.15,9904.44 9891.80,9902.85 9959.52,9900.38 10944.79,9862.27 11318.15,9848.43 11538.62,9851.75 11614.25,9853.90 11808.45,9860.26 11941.65,9870.38 12023.57,9878.48 12131.15,9890.71 12181.73,9897.23 12492.88,9945.90 12748.93,10001.76 12848.39,10024.17 13041.50,10075.44 13195.43,10121.35 13351.29,10170.34 13691.16,10278.78 13807.21,10315.14 13855.17,10330.46 14163.15,10428.30 14207.06,10441.90 14332.87,10480.15 14912.05,10659.25 15896.02,10971.20 16009.97,11005.51 16181.06,11048.36 16326.10,11080.95 16520.17,11124.57 16873.03,11186.29 16962.63,11199.03 17102.56,11218.95 17268.85,11233.49 17425.84,11247.77 17490.75,11251.96 17558.43,11256.26 17669.52,11259.44 17855.59,11261.63 18407.50,11259.75 18455.31,11259.78 18726.09,11256.99 18988.43,11254.25 19334.82,11252.61 19390.86,11252.35 19947.61,11247.74 20000.11,11247.41 20310.63,11248.08 20740.70,11242.44 21076.94,11237.96 21250.76,11237.63 21486.91,11235.59 21620.83,11234.40 21796.15,11233.13 21857.15,11232.67 22192.39,11230.22 22458.14,11224.86 22639.97,11217.25 22823.61,11203.41 23146.98,11163.62 23248.13,11147.56 23415.62,11117.65 23610.97,11075.96 23789.89,11031.50 23950.72,10986.55 24122.02,10933.27 24288.76,10875.92 24711.58,10705.09 25216.00,10477.09 25263.92,10455.12 25300.44,10438.37 25304.90,10436.32 25494.48,10349.37 25808.80,10203.09 26511.29,9882.87 27134.78,9603.60 27369.60,9513.15 27544.69,9453.89 27745.78,9393.00 27953.76,9336.99 28252.32,9271.74 28519.67,9225.43 28540.06,9222.66 28737.70,9203.87 28932.98,9185.03 29113.04,9175.53 29228.76,9170.65 29282.27,9168.76 29364.15,9167.93 30459.35,9196.33 30704.45,9201.44 31017.53,9210.03 31679.78,9228.52 31840.15,9231.46"/>
        <param key="ref" value="G30"/>
    </edge>

    <junction id="Jun_0" type="dead_end" x="3.86" y="12225.62" incLanes="" intLanes="" shape="5.23,12232.99 2.49,12218.25"/>
    <junction id="Jun_1" type="dead_end" x="31840.25" y="9225.84" incLanes="Route_0_0 Route_0_1 Route_0_2 Route_0_3" intLanes="" shape="31840.39,9218.34 31840.11,9233.34"/>

</net>
